24

La  -0.694018 1.09253 -2.32233
La  0.694018 1.09253 2.32233
O   1.23941 0.821654 -0.979339
O   -1.23941 0.821654 0.979339
O   2.50284 0.537005 0.791386
O   -2.50284 0.537005 -0.791386
C   2.36697 0.520874 -0.449902
C   -2.36697 0.520874 0.449902
C   3.47117 0.107768 -1.38227
C   -3.47117 0.107768 1.38227
C   3.69335 -1.27987 -1.62895
C   -3.69335 -1.27987 1.62895
C   4.51155 -1.61252 -2.70013
C   -4.51155 -1.61252 2.70013
C   5.14456 -0.681067 -3.51019
C   -5.14456 -0.681067 3.51019
C   4.99594 0.645592 -3.16939
C   -4.99594 0.645592 3.16939
C   4.18726 1.08309 -2.10667
C   -4.18726 1.08309 2.10667
H   4.64482 -2.53257 -2.88922
H   -4.64482 -2.53257 2.88922
H   5.46258 1.29751 -3.67813
H   -5.46258 1.29751 3.67813
