16

Mn  0.00784962 -1.18294 0.583008
Mn  0.10941 1.172 -0.671192
S   0.735035 -0.8411 -1.56654
S   1.92572 -0.0956345 -0.0675308
O   1.39823 -3.79807 0.952364
O   -0.0105034 -1.10541 3.55653
O   -2.51522 -2.71208 0.229534
O   1.62297 2.87078 -2.60552
O   0.0934545 3.50765 1.15979
O   -2.38803 1.80755 -2.14644
C   0.865337 -2.80372 0.786981
C   -0.00827433 -1.10112 2.41118
C   -1.55366 -2.09976 0.366168
C   1.04177 2.21433 -1.87577
C   0.10514 2.60265 0.45509
C   -1.42924 1.56488 -1.56766
