23

Fe  0.934041 1.55009 -0.152226
Fe  -0.899373 -0.899671 1.29388
Fe  -0.0451991 -0.648226 -1.1494
S   1.22467 -0.491616 0.699437
S   -1.22371 0.90384 -0.00467456
O   0.210915 3.85669 -1.88986
O   3.81428 1.7656 -0.864571
O   1.2147 2.95032 2.41764
O   -3.82062 -1.47082 1.29906
O   -0.278619 -3.63084 2.2501
O   -0.722254 0.397178 3.92682
O   -0.0329203 0.894723 -3.66644
O   1.96763 -2.56918 -2.14569
O   -2.31811 -2.45836 -1.72437
C   0.486984 2.96795 -1.22604
C   2.701 1.65988 -0.61744
C   1.09148 2.43998 1.39936
C   -2.69219 -1.25227 1.2935
C   -0.500095 -2.58452 1.85612
C   -0.81995 -0.112106 2.90645
C   -0.0306845 0.315049 -2.676
C   1.18619 -1.83162 -1.75663
C   -1.44817 -1.75208 -1.46903
