170

O   -1.59072 2.17525 -1.90832
O   1.59072 -2.17525 1.90832
O   0.83062 2.08428 -2.69316
O   -0.83062 -2.08429 2.69316
C   -5.86789 0.589295 -0.155376
C   5.86789 -0.589295 0.155376
H   -5.99457 -0.32431 0.176515
H   5.99457 0.32431 -0.176515
H   -6.7403 1.03028 -0.237375
H   6.7403 -1.03028 0.237375
H   -5.30761 1.09158 0.473534
H   5.30761 -1.09158 -0.473534
C   -3.92324 2.96229 -4.0767
C   3.92324 -2.9623 4.0767
H   -3.43871 2.81991 -4.91755
H   3.43871 -2.81992 4.91755
H   -3.37994 3.51402 -3.47607
H   3.37994 -3.51402 3.47607
H   -4.77084 3.4191 -4.26017
H   4.77084 -3.4191 4.26017
C   -0.969057 7.02408 0.547325
C   0.969057 -7.02408 -0.547325
H   -1.64426 7.39783 1.10116
H   1.64426 -7.39783 -1.10116
C   -3.34729 4.7895 0.410576
C   3.34729 -4.78951 -0.410576
C   -4.19097 1.67296 -3.44354
C   4.19097 -1.67297 3.44354
C   -4.30329 4.10924 1.09549
C   4.30329 -4.10925 -1.09549
H   -5.18615 4.06772 0.747311
H   5.18615 -4.06772 -0.747311
C   -2.03476 4.89233 0.946988
C   2.03476 -4.89234 -0.946988
C   -0.975587 5.67147 0.273171
C   0.975587 -5.67147 -0.273171
C   -4.01336 3.47249 2.30835
C   4.01336 -3.47249 -2.30835
C   3.59282 5.2384 0.0795086
C   -3.59282 -5.2384 -0.0795086
H   2.80138 5.60423 0.52733
H   -2.80138 -5.60424 -0.52733
H   4.349 5.84944 0.201288
H   -4.349 -5.84945 -0.201288
H   3.81354 4.36632 0.468369
H   -3.81354 -4.36632 -0.468369
C   0.0352622 7.85661 0.0118051
C   -0.0352622 -7.85661 -0.0118051
H   0.0574643 8.78603 0.200726
H   -0.0574643 -8.78603 -0.200726
C   -3.75477 -2.23062 -3.74392
C   3.75477 2.23062 3.74392
H   -3.30289 -2.11395 -4.60603
H   3.30289 2.11395 4.60603
H   -4.55535 -2.78234 -3.86661
H   4.55535 2.78234 3.86661
H   -3.14617 -2.6716 -3.11497
H   3.14617 2.6716 3.11497
C   -1.68736 4.24965 2.1561
C   1.68736 -4.24965 -2.1561
C   5.14828 3.88183 -4.53679
C   -5.14828 -3.88183 4.53679
H   4.82047 3.85217 -5.45862
H   -4.82047 -3.85217 5.45862
H   5.38466 2.97811 -4.24383
H   -5.38466 -2.97812 4.24383
H   5.94102 4.45728 -4.49062
H   -5.94102 -4.45729 4.49062
C   0.975587 7.27324 -0.787013
C   -0.975587 -7.27325 0.787013
H   1.65863 7.82299 -1.15055
H   -1.65863 -7.82299 1.15055
In  -0.710206 0.683424 -3.19751
In  0.710206 -0.683424 3.19751
In  0.102652 3.03171 -0.934861
In  -0.102652 -3.03171 0.934861
C   -0.329114 4.34852 2.75714
C   0.329114 -4.34852 -2.75714
H   -0.299075 3.82053 3.58264
H   0.299075 -3.82053 -3.58264
H   -0.130601 5.28586 2.96064
H   0.130601 -5.28586 -2.96064
H   0.334338 4.00444 2.1241
H   -0.334338 -4.00444 -2.1241
C   -3.82921 0.33222 -3.89469
C   3.82921 -0.33222 3.89469
C   -1.58941 0.415275 -5.13745
C   1.58941 -0.415275 5.13745
C   0.010448 5.10195 -0.557033
C   -0.010448 -5.10195 0.557033
C   -5.19399 0.547767 -1.50725
C   5.19399 -0.547768 1.50725
C   4.07605 4.43553 -3.64141
C   -4.07605 -4.43553 3.64141
C   1.84408 5.21071 -3.34804
C   -1.84408 -5.21071 3.34804
C   4.30068 4.55418 -2.30396
C   -4.30068 -4.55418 2.30396
H   5.14175 4.28524 -1.9537
H   -5.14175 -4.28524 1.9537
C   -2.92154 -0.0494375 -7.54001
C   2.92154 0.0494375 7.54001
H   -3.37341 -0.225435 -8.35633
H   3.37341 0.225435 8.35633
C   -4.14004 -0.921515 -3.21471
C   4.14004 0.921515 3.21471
C   3.30811 5.07426 -1.39942
C   -3.30811 -5.07427 1.39942
C   -2.98031 0.282782 -5.14813
C   2.98031 -0.282783 5.14813
C   -1.55807 0.11865 -7.56243
C   1.55807 -0.11865 7.56243
H   -1.08529 0.138425 -8.38468
H   1.08529 -0.138425 8.38468
C   -4.78521 -0.707945 -2.01851
C   4.78521 0.707945 2.01851
H   -4.97458 -1.47126 -1.48615
H   4.97458 1.47126 1.48615
C   0.986035 5.88306 -1.10224
C   -0.986035 -5.88306 1.10224
C   -3.66335 0.027685 -6.37057
C   3.66335 -0.027685 6.37057
H   -4.60628 -0.0889875 -6.38372
H   4.60628 0.0889875 6.38372
C   -0.877636 0.264985 -6.33408
C   0.877636 -0.264985 6.33408
C   2.07916 5.38671 -1.92398
C   -2.07916 -5.38671 1.92398
C   -4.88838 1.67692 -2.22163
C   4.88838 -1.67692 2.22163
H   -5.16525 2.5134 -1.86917
H   5.16525 -2.5134 1.86917
C   2.85624 4.78555 -4.14309
C   -2.85624 -4.78555 4.14309
H   2.71127 4.73018 -5.08023
H   -2.71127 -4.73018 5.08023
O   -1.53064 -0.755405 -1.83974
O   1.53064 0.755405 1.83974
O   -0.229857 1.67692 0.790185
O   0.229857 -1.67692 -0.790185
O   1.81927 2.1535 0.138742
O   -1.81927 -2.1535 -0.138742
C   -5.05555 2.75268 3.10112
C   5.05555 -2.75268 -3.10112
H   -4.65461 2.40266 3.9233
H   4.65461 -2.40266 -3.9233
H   -5.4147 2.01112 2.57023
H   5.4147 -2.01112 -2.57023
H   -5.77908 3.37361 3.32776
H   5.77908 -3.37362 -3.32776
C   2.16928 1.63935 -2.96259
C   -2.16928 -1.63935 2.96259
H   2.82359 2.22073 -2.50015
H   -2.82359 -2.22073 2.50015
H   2.35212 1.67494 -3.93624
H   -2.35212 -1.67494 3.93624
C   -3.64637 5.44801 -0.89095
C   3.64637 -5.44801 0.89095
H   -2.84056 5.8969 -1.2228
H   2.84056 -5.89691 1.2228
H   -4.36075 6.10652 -0.767664
H   4.36075 -6.10652 0.767664
H   -3.93238 4.77171 -1.54104
H   3.93238 -4.77171 1.54104
C   -2.69951 3.56148 2.83558
C   2.69951 -3.56148 -2.83558
H   -2.50361 3.1462 3.66729
H   2.50361 -3.1462 -3.66729
C   1.07484 1.54443 0.965608
C   -1.07484 -1.54443 -0.965608
