34

Mn  0.139538 -1.3476 0.131457
Mn  0.139538 1.3476 0.131457
Se  2.04562 3.55271e-15 -0.547241
Se  0.591889 3.55271e-15 2.12189
O   -2.2457 -2.78174 1.10056
O   -2.2457 2.78174 1.10056
O   -0.4259 -2.44467 -2.53418
O   -0.4259 2.44467 -2.53418
C   -1.31021 -2.19718 0.774266
C   -1.31021 2.19718 0.774266
C   -0.137704 -2.04219 -1.49217
C   -0.137704 2.04219 -1.49217
C   2.31963 3.55271e-15 -2.46292
C   2.49848 -1.1996 -3.1375
C   2.49848 1.1996 -3.1375
H   2.38217 -2.02472 -2.68092
H   2.38217 2.02472 -2.68092
C   2.84763 -1.19333 -4.4805
C   2.84763 1.19333 -4.4805
H   2.9737 -2.01576 -4.93914
H   2.9737 2.01576 -4.93914
C   3.01313 3.55271e-15 -5.15508
H   3.24058 3.55271e-15 -6.07853
C   -0.988151 3.55271e-15 3.25048
C   -0.784004 3.55271e-15 4.61611
H   0.0997047 3.55271e-15 4.96471
C   -1.87365 3.55271e-15 5.4799
H   -1.73662 3.55271e-15 6.42083
C   -3.15848 3.55271e-15 4.96368
H   -3.90357 3.55271e-15 5.55394
C   -3.36622 3.55271e-15 3.59909
H   -4.25012 3.55271e-15 3.25048
C   -2.27796 3.55271e-15 2.7394
H   -2.41579 3.55271e-15 1.79951
