74

Ir  2.03148 0.949185 1.00919
Ir  0.0955449 -1.06833 1.68509
P   2.82612 0.864232 3.22536
P   1.10533 -1.56881 3.75476
P   1.4046 0.899292 -1.28779
P   -0.903614 -0.997146 -0.46692
O   3.35537 3.68253 0.801437
O   1.35402 -3.58188 0.633596
C   2.90857 2.65709 0.830937
C   0.934191 -2.61501 1.00284
C   0.175464 1.18074 1.48442
C   -0.544483 0.836646 2.62148
H   -0.0234909 1.02591 3.45408
C   2.76356 -0.801466 3.90475
H   3.01985 -0.768893 4.86032
H   3.4245 -1.36574 3.43332
C   0.40814 -0.573345 -1.64794
H   1.02018 -1.34827 -1.71679
H   -0.0100024 -0.450336 -2.53681
C   0.303605 -1.15167 5.3412
C   -1.00478 -0.707304 5.44579
H   -1.5224 -0.555182 4.66369
C   -1.55106 -0.485465 6.70678
H   -2.45985 -0.224811 6.79915
C   -0.760299 -0.648854 7.81678
H   -1.10931 -0.417971 8.66972
C   0.448606 -1.1105 7.73394
H   0.940935 -1.28277 8.52796
C   1.03535 -1.35405 6.49901
H   1.93402 -1.65954 6.44884
C   2.79223 0.797133 -2.46261
C   3.84601 1.72709 -2.30901
H   3.85782 2.31631 -1.56512
C   4.85428 1.77408 -3.24234
H   5.53882 2.42775 -3.16021
C   4.88463 0.879392 -4.3061
H   5.5894 0.925155 -4.93897
C   3.89997 -0.0698324 -4.44749
H   3.932 -0.708775 -5.15047
C   2.82089 -0.0646474 -3.49699
H   2.11106 -0.686925 -3.59957
C   0.521106 2.30771 -1.97501
C   0.568316 3.58215 -1.41582
H   1.01849 3.70161 -0.58969
C   -0.0150606 4.67566 -2.01457
H   0.0759866 5.53957 -1.6309
C   -0.718147 4.50765 -3.1608
H   -1.17001 5.24925 -3.54503
C   -0.788962 3.21108 -3.80656
H   -1.25937 3.11022 -4.62491
C   -0.176922 2.13892 -3.22704
H   -0.208957 1.28651 -3.64578
C   -2.39409 -0.0219189 -0.874189
C   -3.24555 0.403413 0.110359
H   -3.04491 0.252149 1.02506
C   -4.40387 1.05827 -0.255735
H   -5.0294 1.29922 0.417237
C   -4.67533 1.36823 -1.54622
H   -5.4526 1.86114 -1.77871
C   -3.78846 0.947741 -2.50768
H   -3.95369 1.18288 -3.41157
C   -2.67735 0.205679 -2.2194
H   -2.12095 -0.141429 -2.90701
C   -1.49036 -2.59785 -1.06399
C   -2.74816 -3.05988 -0.660184
H   -3.25735 -2.54138 -0.0478392
C   -3.27758 -4.27186 -1.13825
H   -4.15434 -4.54878 -0.89717
C   -2.502 -5.04112 -1.95715
H   -2.84258 -5.87336 -2.261
C   -1.22734 -4.64355 -2.35978
H   -0.711403 -5.19917 -2.93374
C   -0.723205 -3.44656 -1.92389
H   0.146801 -3.1772 -2.19234
