11

Mn  0.526508 0.335242 -1.81337
B   -0.0790604 0.0957494 -0.0267845
Mn  -0.632736 -0.170994 1.78046
O   -1.97793 0.981733 -3.23787
C   -1.01421 0.756977 -2.6366
O   -0.238136 -2.48632 -1.61766
C   0.0568488 -1.36469 -1.70889
O   0.247585 2.22829 3.26362
C   -0.113038 1.3373 2.61267
O   2.16962 -1.02274 1.666
C   1.05455 -0.690558 1.71842
