11

B   0.818402 -0.0350764 -0.074493
Mn  0.479365 -1.74435 -0.621013
O   -0.490876 -0.300049 -2.98077
C   -0.111397 -0.892161 -2.05635
O   -2.11538 -1.50608 0.731799
C   -1.08353 -1.61227 0.195122
Mn  1.21035 1.80444 0.410412
O   -1.65501 1.64893 -0.247115
C   -0.540768 1.71048 0.0662566
O   1.90846 0.126149 2.72839
C   1.58038 0.799995 1.84777
