39

C   0.805387 -0.0270118 -2.20002
C   -0.805387 -0.0270118 2.20002
C   2.17005 -2.17555 -1.64624
C   -2.17005 -2.17555 1.64624
C   4.24695 -0.739111 0.228884
C   -4.24695 -0.739111 -0.228884
H   4.58697 -1.02681 -0.643249
H   -4.58697 -1.02681 0.643249
H   4.09551 -1.52365 0.795614
H   -4.09551 -1.52365 -0.795614
H   4.90128 -0.147395 0.656404
H   -4.90128 -0.147395 -0.656404
C   3.16916 1.56246 -1.02132
C   -3.16916 1.56246 1.02132
H   3.89169 2.05522 -0.578376
H   -3.89169 2.05522 0.578376
H   2.39825 2.15418 -1.14771
H   -2.39825 2.15418 1.14771
H   3.48023 1.2411 -1.89289
H   -3.48023 1.2411 1.89289
C   2.37463 0.906471 1.63054
C   -2.37463 0.906471 -1.63054
H   3.16402 1.41453 1.91054
H   -3.16402 1.41453 -1.91054
H   2.18872 0.202533 2.28758
H   -2.18872 0.202533 -2.28758
H   1.60392 1.50737 1.56903
H   -1.60392 1.50737 -1.56903
O   0.672807 0.687944 -3.07536
O   -0.672807 0.687944 3.07536
O   2.90953 -2.85582 -2.17825
O   -2.90953 -2.85582 2.17825
P   2.68532 0.151727 0.00360685
P   -2.68532 0.151727 -0.00360685
S   0.94692 -2.20718 1.18921
S   -0.94692 -2.20718 -1.18921
Fe  1.01607 -1.12158 -0.801327
Fe  -1.01607 -1.12158 0.801327
H   7.10543e-15 -0.11883 4.44089e-16
