99

Ni  -1.14177 0.648994 0.199607
Ni  0.848948 -0.887111 -1.23863
P   -1.98814 2.59008 -0.136187
P   -2.39798 0.283251 1.89866
P   1.4962 -0.94499 -3.28649
P   2.32922 -2.30605 -0.630588
O   -0.252353 0.614051 -1.46439
H   -0.33706 1.14611 -2.20572
O   -0.088742 -0.904312 0.413418
H   0.167698 -1.32758 1.16894
O   -3.23565 4.93315 -1.43714
O   -3.77986 0.29902 4.57095
O   2.49423 -0.209402 -5.98333
O   3.93888 -4.76167 -0.0491458
O   0.0226529 3.77585 1.69998
O   -3.34704 -1.49444 -0.237617
O   3.16376 0.315727 0.425071
C   -2.95136 3.28737 1.22974
H   -2.35725 3.35311 2.01917
H   -3.21012 4.20989 0.980592
C   -4.06415 0.992316 1.64127
H   -4.39717 0.664419 0.767942
H   -4.66057 0.615455 2.33835
C   2.49887 -2.3917 -3.75554
H   1.96394 -3.20511 -3.57689
H   2.6532 -2.35152 -4.73321
C   3.87738 -2.14045 -1.5722
H   4.15935 -1.19303 -1.52692
H   4.57128 -2.67239 -1.10701
C   -3.01286 2.62781 -1.62644
C   -3.31107 1.43473 -2.25306
H   -2.956 0.625608 -1.90351
C   -4.11868 1.38857 -3.38312
H   -4.31247 0.563251 -3.81294
C   -4.63041 2.5721 -3.86171
H   -5.18158 2.55774 -4.63629
C   -4.367 3.758 -3.26011
H   -4.74064 4.55917 -3.61114
C   -3.55243 3.81073 -2.13027
C   -1.73878 0.775671 3.51691
C   -0.413644 1.166 3.5928
H   0.134048 1.14758 2.81659
C   0.115482 1.58563 4.81345
H   1.02637 1.85154 4.86683
C   -0.659641 1.61803 5.92144
H   -0.288325 1.91935 6.74235
C   -1.97085 1.2212 5.8817
H   -2.5023 1.25395 6.66807
C   -2.5139 0.7733 4.69293
C   2.38167 0.550344 -3.78162
C   2.6648 1.50818 -2.81206
H   2.36427 1.37678 -1.92204
C   3.38423 2.65687 -3.13275
H   3.61166 3.28845 -2.46029
C   3.76134 2.86363 -4.44795
H   4.22549 3.65983 -4.68276
C   3.47822 1.94359 -5.41367
H   3.74742 2.1021 -6.30938
C   2.80056 0.776909 -5.09543
C   1.77248 -4.02472 -0.561601
C   0.418337 -4.2915 -0.72698
H   -0.175769 -3.58014 -0.936775
C   -0.0771384 -5.57917 -0.589099
H   -1.00427 -5.75208 -0.699043
C   0.797776 -6.61293 -0.292254
H   0.45895 -7.49487 -0.198189
C   2.15192 -6.38847 -0.130083
H   2.74022 -7.11111 0.0577318
C   2.64391 -5.08671 -0.246533
C   -0.581897 3.69193 -0.486189
C   -0.287164 3.96476 -1.86187
H   -0.839497 3.61342 -2.55142
C   0.818662 4.75194 -2.17723
H   0.982274 4.99643 -3.08123
C   1.64136 5.16034 -1.22916
H   2.41184 5.65321 -1.48921
C   1.44642 4.91574 0.120076
H   2.04517 5.23633 0.785295
C   0.277933 4.14043 0.452481
C   -2.59861 -1.5264 1.99318
C   -2.20408 -2.2398 3.12014
H   -1.88963 -1.7717 3.88351
C   -2.26094 -3.62119 3.14468
H   -1.9871 -4.09681 3.92064
C   -2.71813 -4.29591 2.0445
H   -2.77498 -5.24338 2.06579
C   -3.09756 -3.61789 0.898685
H   -3.4097 -4.09993 0.143477
C   -3.02098 -2.24534 0.857349
C   2.72166 -1.89251 1.10082
C   2.56501 -2.82588 2.11612
H   2.3283 -3.71771 1.89487
C   2.74719 -2.48272 3.44829
H   2.66596 -3.13799 4.13048
C   3.04772 -1.1781 3.76544
H   3.14171 -0.926796 4.67624
C   3.21249 -0.236795 2.78109
H   3.44573 0.654012 3.0123
C   3.04308 -0.575712 1.45448
