127

Ni  -1.1404 0.48791 0.243996
Ni  0.850322 -1.0482 -1.19424
P   -1.98677 2.429 -0.0917978
P   -2.39661 0.122167 1.94305
P   1.49757 -1.10607 -3.2421
P   2.3306 -2.46713 -0.586199
O   -0.250979 0.452968 -1.42
H   -0.335686 0.985021 -2.16133
O   -0.0873681 -1.0654 0.457807
H   0.169072 -1.48867 1.21333
O   -3.23427 4.77207 -1.39275
O   -3.77848 0.137936 4.61534
O   2.4956 -0.370486 -5.93894
O   3.94025 -4.92275 -0.00475678
O   0.0240268 3.61476 1.74437
O   -3.34567 -1.65552 -0.193228
O   3.16513 0.154643 0.46946
C   -2.94999 3.12629 1.27413
H   -2.35588 3.19203 2.06356
H   -3.20875 4.04881 1.02498
C   -4.06277 0.831232 1.68566
H   -4.3958 0.503335 0.812331
H   -4.6592 0.454371 2.38274
C   2.50024 -2.55278 -3.71115
H   1.96532 -3.3662 -3.5325
H   2.65457 -2.5126 -4.68882
C   3.87875 -2.30153 -1.52781
H   4.16072 -1.35411 -1.48253
H   4.57265 -2.83348 -1.06263
C   -3.01148 2.46673 -1.58205
C   -3.3097 1.27365 -2.20867
H   -2.95463 0.464524 -1.85913
C   -4.11731 1.22749 -3.33873
H   -4.31109 0.402167 -3.76855
C   -4.62903 2.41102 -3.81732
H   -5.1802 2.39666 -4.5919
C   -4.36563 3.59691 -3.21572
H   -4.73927 4.39808 -3.56675
C   -3.55105 3.64965 -2.08588
C   -3.79589 6.01707 -1.87304
H   -3.47447 6.1924 -2.78061
H   -3.52088 6.74928 -1.28164
H   -4.77408 5.95268 -1.87797
C   -1.73741 0.614587 3.5613
C   -0.41227 1.00491 3.63718
H   0.135422 0.986499 2.86097
C   0.116856 1.42454 4.85784
H   1.02774 1.69046 4.91122
C   -0.658267 1.45695 5.96583
H   -0.286951 1.75827 6.78674
C   -1.96948 1.06012 5.92609
H   -2.50092 1.09287 6.71246
C   -2.51253 0.612216 4.73732
C   -4.71258 0.404461 5.68549
H   -4.44685 -0.0972272 6.48494
H   -5.61186 0.12935 5.40942
H   -4.71374 1.36467 5.88786
C   2.38305 0.38926 -3.73723
C   2.66617 1.3471 -2.76767
H   2.36564 1.21569 -1.87765
C   3.3856 2.49579 -3.08836
H   3.61303 3.12737 -2.4159
C   3.76272 2.70255 -4.40356
H   4.22686 3.49875 -4.63837
C   3.47959 1.78251 -5.36929
H   3.74879 1.94102 -6.26499
C   2.80194 0.615825 -5.05104
C   2.97947 -0.2166 -7.2938
H   2.52345 0.538755 -7.72154
H   2.79846 -1.03617 -7.79957
H   3.9449 -0.0491056 -7.27985
C   1.77386 -4.1858 -0.517212
C   0.419711 -4.45259 -0.682591
H   -0.174395 -3.74122 -0.892386
C   -0.0757644 -5.74026 -0.54471
H   -1.00289 -5.91316 -0.654654
C   0.79915 -6.77401 -0.247866
H   0.460324 -7.65595 -0.1538
C   2.15329 -6.54956 -0.0856942
H   2.7416 -7.2722 0.102121
C   2.64529 -5.24779 -0.202144
C   4.88827 -5.95625 0.239846
H   4.6678 -6.41042 1.07941
H   5.78639 -5.56759 0.304068
H   4.86506 -6.60308 -0.497007
C   -0.580523 3.53084 -0.4418
C   -0.28579 3.80368 -1.81748
H   -0.838123 3.45233 -2.50703
C   0.820036 4.59086 -2.13284
H   0.983648 4.83535 -3.03684
C   1.64273 4.99925 -1.18478
H   2.41322 5.49213 -1.44482
C   1.44779 4.75465 0.164465
H   2.04654 5.07525 0.829684
C   0.279307 3.97935 0.49687
C   0.787546 4.20236 2.82885
H   1.70423 3.85968 2.80659
H   0.370976 3.96942 3.68454
H   0.80147 5.17707 2.72769
C   -2.59723 -1.68748 2.03757
C   -2.20271 -2.40089 3.16452
H   -1.88825 -1.93278 3.9279
C   -2.25957 -3.78227 3.18907
H   -1.98572 -4.25789 3.96503
C   -2.71675 -4.45699 2.08889
H   -2.77361 -5.40446 2.11018
C   -3.09619 -3.77898 0.943074
H   -3.40833 -4.26101 0.187866
C   -3.01961 -2.40643 0.901738
C   -3.45242 -2.3347 -1.44494
H   -2.58563 -2.72778 -1.67935
H   -3.72047 -1.69812 -2.14047
H   -4.12427 -3.0441 -1.37614
C   2.72303 -2.05359 1.14521
C   2.56638 -2.98697 2.16051
H   2.32967 -3.87879 1.93926
C   2.74856 -2.64381 3.49268
H   2.66734 -3.29907 4.17487
C   3.04909 -1.33918 3.80983
H   3.14308 -1.08788 4.72063
C   3.21387 -0.397879 2.82548
H   3.4471 0.492929 3.05669
C   3.04445 -0.736796 1.49887
C   3.16861 1.54523 0.817974
H   2.33779 1.76693 1.28691
H   3.23939 2.08556 0.00490413
H   3.93329 1.73353 1.40292
