48

Fe  0.0246003 0.87848 1.00407
Fe  -0.0246003 -0.87848 -1.00407
S   1.35799 -0.86396 0.716565
S   -1.35799 0.86396 -0.716565
Cl  -0.251243 -1.42866 4.29413
Cl  0.251243 1.42866 -4.29413
Cl  0.915895 2.35785 7.95349
Cl  -0.915895 -2.35785 -7.95349
Cl  -1.38392 7.49251 3.18962
Cl  1.38392 -7.49251 -3.18962
Cl  1.36367 4.70055 -0.475453
Cl  -1.36367 -4.70055 0.475453
O   -0.973354 0.871934 2.6197
O   0.973354 -0.871934 -2.6197
O   1.03375 2.45578 1.38718
O   -1.03375 -2.45578 -1.38718
C   -0.410301 1.22193 3.75762
C   0.410301 -1.22193 -3.75762
C   -0.116341 0.250156 4.74805
C   0.116341 -0.250156 -4.74805
C   0.298401 0.570804 6.01868
C   -0.298401 -0.570804 -6.01868
H   0.454706 -0.0927422 6.65031
H   -0.454706 0.0927422 -6.65031
C   0.476908 1.90591 6.33231
C   -0.476908 -1.90591 -6.33231
C   0.328596 2.88648 5.3672
C   -0.328596 -2.88648 -5.3672
H   0.512432 3.77211 5.58134
H   -0.512432 -3.77211 -5.58134
C   -0.0950264 2.564 4.07457
C   0.0950264 -2.564 -4.07457
C   -0.183836 3.66597 3.07683
C   0.183836 -3.66597 -3.07683
C   -0.759323 4.87671 3.46487
C   0.759323 -4.87671 -3.46487
H   -1.18916 4.93922 4.28824
H   1.18916 -4.93922 -4.28824
C   -0.698932 5.97483 2.64406
C   0.698932 -5.97483 -2.64406
C   -0.0630549 5.93823 1.42692
C   0.0630549 -5.93823 -1.42692
H   -0.0106572 6.6937 0.885189
H   0.0106572 -6.6937 -0.885189
C   0.496446 4.73707 1.03759
C   -0.496446 -4.73707 -1.03759
C   0.446713 3.5719 1.807
C   -0.446713 -3.5719 -1.807
