46

Cu  -1.22328 1.17073 -3.29553
Cu  1.22328 -1.17073 3.29553
O   -0.744044 2.58467 -4.48933
O   0.744044 -2.58467 4.48933
O   -0.232476 1.93819 -1.84423
O   0.232476 -1.93819 1.84423
O   1.51921 0.406842 2.22081
O   -1.51921 -0.406842 -2.22081
O   1.97648 -0.330984 4.84275
O   -1.97648 0.330984 -4.84275
C   -0.00404189 3.5817 -4.24179
C   0.00404189 -3.5817 4.24179
C   0.596178 3.83931 -3.00818
C   -0.596178 -3.83931 3.00818
H   1.13779 4.6153 -2.92666
H   -1.13779 -4.6153 2.92666
C   0.445955 3.01837 -1.88219
C   -0.445955 -3.01837 1.88219
C   1.12701 3.37841 -0.593575
C   -1.12701 -3.37841 0.593575
C   1.68749 4.63662 -0.347752
C   -1.68749 -4.63662 0.347752
H   1.63898 5.31403 -1.01199
H   -1.63898 -5.31403 1.01199
C   2.31263 4.89923 0.860091
C   -2.31263 -4.89923 -0.860091
H   2.69324 5.75483 1.01882
H   -2.69324 -5.75483 -1.01882
C   2.38471 3.92033 1.83799
C   -2.38471 -3.92033 -1.83799
H   2.82326 4.10785 2.65982
H   -2.82326 -4.10785 -2.65982
C   1.81615 2.65654 1.62586
C   -1.81615 -2.65654 -1.62586
C   1.1964 2.40193 0.402285
C   -1.1964 -2.40193 -0.402285
H   0.813093 1.54686 0.243168
H   -0.813093 -1.54686 -0.243168
C   1.82558 1.56774 2.65673
C   -1.82558 -1.56774 -2.65673
C   2.13681 1.87009 3.99226
C   -2.13681 -1.87009 -3.99226
H   2.31263 2.77526 4.21935
H   -2.31263 -2.77526 -4.21935
C   2.20148 0.906882 5.00966
C   -2.20148 -0.906882 -5.00966
