74

Cu  -0.849074 -0.821845 -0.67534
Cu  1.03585 0.652224 -0.581018
O   -0.215 -1.41026 -2.36858
O   1.49069 0.0149522 -2.29277
O   -1.60555 0.191744 0.734172
O   0.240598 1.43267 0.93372
C   0.797503 -0.857155 -2.86986
C   1.17574 -1.24774 -4.27684
C   2.18691 -2.17426 -4.53369
C   2.46822 -2.49786 -5.86231
H   3.15247 -3.12667 -6.05248
C   1.77446 -1.92226 -6.89682
H   1.98734 -2.15685 -7.79187
C   0.772794 -1.01291 -6.64757
H   0.297619 -0.616274 -7.36843
C   0.459178 -0.670932 -5.32655
C   2.91868 -2.88965 -3.41044
C   2.53854 -4.20531 -3.10617
C   3.20759 -4.88007 -2.07927
H   2.9681 -5.77975 -1.88911
C   4.20166 -4.28512 -1.33636
C   4.56469 -2.98881 -1.67612
H   5.25464 -2.56558 -1.17915
C   3.96407 -2.28261 -2.71063
C   1.40193 -4.88975 -3.83387
H   0.601731 -4.32624 -3.79077
H   1.21756 -5.75315 -3.4079
H   1.65282 -5.03244 -4.76949
C   4.45825 -0.901656 -3.05039
H   4.65212 -0.410702 -2.2238
H   3.7702 -0.422795 -3.56004
H   5.27365 -0.969373 -3.58793
C   -0.94924 1.14318 1.23672
C   -1.66961 2.01262 2.23116
C   -1.9338 3.34279 1.88379
C   -2.7416 4.10462 2.72052
H   -2.96018 4.99946 2.48725
C   -3.22818 3.55562 3.89955
H   -3.79839 4.07076 4.45484
C   -2.89556 2.2714 4.27228
H   -3.21487 1.92072 5.0938
C   -2.09726 1.48298 3.45076
C   -1.30847 3.96676 0.679404
C   -0.137642 4.72617 0.849286
C   0.466781 5.2921 -0.256214
H   1.23847 5.83384 -0.142114
C   -0.0350037 5.08169 -1.53413
C   -1.20203 4.32954 -1.70148
H   -1.55366 4.19652 -2.57371
C   -1.85587 3.77812 -0.611191
C   0.46488 4.91239 2.21341
H   1.31829 5.38642 2.13481
H   0.615036 4.03448 2.62671
H   -0.147145 5.43479 2.77377
C   -3.12364 2.98486 -0.824177
H   -3.89723 3.58222 -0.758253
H   -3.19207 2.28591 -0.139579
H   -3.10463 2.5713 -1.71162
C   -1.6506 0.150388 3.96649
C   -2.54583 -0.92584 4.06943
C   -2.10867 -2.10606 4.66275
H   -2.70739 -2.84128 4.72107
C   -0.821894 -2.23908 5.18001
C   0.0410243 -1.16285 5.04562
H   0.92485 -1.24266 5.38285
C   -0.335314 0.0222076 4.43988
C   -3.92003 -0.821845 3.47865
H   -4.34009 -1.70701 3.46851
H   -3.85731 -0.47842 2.56078
H   -4.46363 -0.209967 4.01872
C   -0.348619 -3.52572 5.82911
H   0.305222 -3.96588 5.24593
H   -1.1146 -4.12067 5.9711
H   0.0695348 -3.32015 6.69119
