26

Cu  2.18336 -1.29812 2.77224
Cu  0.298439 -2.77219 2.86657
O   1.54929 -0.709706 1.079
O   -0.156398 -2.13492 1.15482
O   2.93984 -2.31171 4.18176
O   1.09369 -3.55264 4.3813
C   0.536787 -1.26281 0.577725
C   0.158548 -0.872228 -0.829252
C   -0.852625 0.0542951 -1.0861
C   -1.13393 0.377889 -2.41473
H   -1.81818 1.0067 -2.6049
C   -0.440173 -0.197712 -3.44924
H   -0.653051 0.036882 -4.34428
C   0.561496 -1.10706 -3.19999
H   1.03667 -1.5037 -3.92085
C   0.875112 -1.44904 -1.87897
C   -1.58439 0.769684 0.0371458
C   -1.20425 2.08534 0.341412
C   -1.8733 2.7601 1.36831
H   -1.63381 3.65978 1.55848
C   -2.62978 0.162643 0.736958
C   -0.0676357 2.76978 -0.386291
H   0.732559 2.20627 -0.343187
H   0.116732 3.63318 0.0396814
H   -0.318528 2.91247 -1.32191
C   2.28353 -3.26315 4.6843
