32

Se  0.754224 1.85005 -0.22748
Se  -1.91347 0.153142 0.582783
As  0.0893854 -0.885516 -1.5613
As  0.936725 -0.888199 1.22663
Fe  -0.896547 -2.07562 0.268346
Fe  -1.19074 1.12651 -1.56181
Fe  -0.108488 1.11339 1.95172
Fe  2.17008 -0.133056 -0.66635
O   0.809252 -4.33628 -0.475711
O   -1.70995 -3.07433 2.92493
O   -3.35754 -2.83523 -1.17238
O   -3.33219 -0.248429 -3.02865
O   -2.79417 3.58005 -1.14002
O   0.147766 2.19826 -3.94699
O   -1.24062 -0.26572 4.27312
O   -1.50472 3.67635 2.44475
O   2.36199 1.92101 3.32847
O   2.99649 0.952109 -3.28729
O   4.32437 0.964332 1.02749
O   3.44375 -2.74908 -0.935413
C   0.133048 -3.47769 -0.156842
C   -1.42296 -2.68647 1.89436
C   -2.39352 -2.5699 -0.636116
C   -2.52025 0.289383 -2.44998
C   -2.1613 2.64514 -1.26033
C   -0.375535 1.77582 -3.02923
C   -0.805624 0.286104 3.37464
C   -0.987144 2.69702 2.22551
C   1.40287 1.63511 2.78001
C   2.69886 0.538911 -2.26786
C   3.49853 0.558886 0.355496
C   2.94743 -1.73606 -0.854522
