53

C   0.196127 -2.6391 -0.212279
C   -0.92253 -3.44499 -0.115029
H   -1.65714 -3.30752 -0.702207
C   -0.97538 -4.46065 0.842561
H   -1.74699 -5.0141 0.900251
C   0.0851423 -4.66805 1.71072
H   0.0534323 -5.35661 2.36123
C   1.18266 -3.85742 1.6034
H   1.92608 -4.00793 2.17616
C   1.24256 -2.83228 0.689252
H   1.99479 -2.25394 0.674611
C   1.73054 -1.22643 -2.26296
C   2.71355 -2.20298 -2.14988
H   2.5779 -2.95079 -1.5783
C   3.89386 -2.08328 -2.87646
H   4.5721 -2.74102 -2.77194
C   4.09998 -1.04273 -3.72683
H   4.91387 -0.96807 -4.21061
C   3.09935 -0.092259 -3.87887
H   3.21386 0.624745 -4.48977
C   1.9437 -0.188255 -3.14557
H   1.27427 0.476603 -3.24919
C   -0.608954 1.98172 -1.61649
C   1.92784 1.21968 -0.327327
C   0.391672 4.18843 0.247535
C   0.856751 2.81486 2.78135
C   -1.81393 4.11495 2.36437
C   -1.95487 0.867696 3.77956
C   -3.48928 1.77551 1.31045
C   -2.63311 -1.0617 1.82654
C   -3.4558 1.01347 -1.48555
C   -2.89912 3.80919 -0.841435
C   0.250739 -0.00218914 1.84939
O   -0.281284 2.41548 -2.63963
O   3.00422 1.50885 -0.518537
O   1.00297 4.84144 -0.485977
O   1.67064 2.72835 3.51643
O   -2.53621 4.79877 2.89703
O   -2.03238 0.996875 4.88738
O   -4.5498 2.09905 1.76053
O   -3.11404 -2.0738 1.84956
O   -4.13933 0.373497 -2.12506
O   -3.24793 4.85329 -1.02772
O   0.965975 -0.492833 2.6022
P   0.2222 -1.15888 -1.24125
Ir  0.121591 0.839609 -0.0424666
Ir  -1.81971 0.664684 1.91137
Ir  -0.53891 3.01551 1.44333
Ir  -2.32216 2.06657 -0.367878
Ir  -0.268952 0.0724741 0.573868
Ir  -0.397554 2.50673 -0.630818
Ir  -1.01766 2.21637 2.03804
Ir  -2.70533 1.24338 0.122924
