74

Fe  4.26049 0.107038 1.71581
Fe  -4.26049 0.107038 -1.71581
P   2.55914 -1.12815 2.32559
P   -2.55914 -1.12815 -2.32559
O   4.11148 -0.730719 -1.03242
O   -4.11148 -0.730719 1.03242
O   2.22468 2.00906 2.04631
O   -2.22468 2.00906 -2.04631
C   6.21467 0.905655 1.7675
C   -6.21467 0.905655 -1.7675
H   6.6114 1.37616 1.04448
H   -6.6114 1.37616 -1.04448
C   5.4478 1.47401 2.81273
C   -5.4478 1.47401 -2.81273
H   5.25609 2.3963 2.93528
H   -5.25609 2.3963 -2.93528
C   5.02261 0.420572 3.63707
C   -5.02261 0.420572 -3.63707
H   4.47024 0.508012 4.40414
H   -4.47024 0.508012 -4.40414
C   5.55221 -0.78693 3.14082
C   -5.55221 -0.78693 -3.14082
H   5.43262 -1.65092 3.51693
H   -5.43262 -1.65092 -3.51693
C   6.28301 -0.478809 1.99184
C   -6.28301 -0.478809 -1.99184
H   6.75186 -1.10338 1.45118
H   -6.75186 -1.10338 -1.45118
C   4.16273 -0.393451 0.0515972
C   -4.16273 -0.393451 -0.0515972
C   3.16049 1.64889 1.38395
C   -3.16049 1.64889 -1.38395
C   3.58378 2.59199 0.270611
C   -3.58378 2.59199 -0.270611
H   3.42244 2.16729 -0.598423
H   -3.42244 2.16729 0.598423
H   4.53667 2.7981 0.361841
H   -4.53667 2.7981 -0.361841
H   3.06368 3.42059 0.328826
H   -3.06368 3.42059 -0.328826
C   2.29871 -1.1471 4.13679
C   -2.29871 -1.1471 -4.13679
C   1.6742 -0.0541013 4.7236
C   -1.6742 -0.0541013 -4.7236
H   1.28697 0.622516 4.18332
H   -1.28697 0.622516 -4.18332
C   1.62105 0.0395842 6.09912
C   -1.62105 0.0395842 -6.09912
H   1.19017 0.782823 6.5005
H   -1.19017 0.782823 -6.5005
C   2.18102 -0.930581 6.89231
C   -2.18102 -0.930581 -6.89231
H   2.15824 -0.845223 7.8397
H   -2.15824 -0.845223 -7.8397
C   2.76756 -2.01109 6.3191
C   -2.76756 -2.01109 -6.3191
H   3.1434 -2.69187 6.86389
H   -3.1434 -2.69187 -6.86389
C   2.82071 -2.12351 4.94569
C   -2.82071 -2.12351 -4.94569
H   3.22502 -2.88965 4.55341
H   -3.22502 -2.88965 -4.55341
C   0.888353 -0.728637 1.70793
C   -0.888353 -0.728637 -1.70793
H   0.242968 -1.35737 2.11728
H   -0.242968 -1.35737 -2.11728
H   0.651079 0.183235 2.01395
H   -0.651079 0.183235 -2.01395
C   0.730803 -0.78693 0.208319
C   -0.730803 -0.78693 -0.208319
H   1.16739 -1.6072 -0.132476
H   -1.16739 -1.6072 0.132476
H   1.18447 -0.00621757 -0.197876
H   -1.18447 -0.00621757 0.197876
