206

Fe  -0.803057 0.54195 1.13285
Fe  -1.3573 -1.77661 2.98202
Fe  -1.11334 -2.90655 -0.239021
Fe  -1.24089 0.0297946 -1.81805
Fe  1.93342 1.2013 -1.304
Fe  1.60884 2.20587 1.88016
Fe  1.7554 -0.76683 3.52792
Fe  1.30904 -1.19157 0.520712
Fe  -2.95488 -4.35194 1.56203
Fe  0.643505 1.90057 -3.86895
Fe  2.96521 1.56392 4.89753
C   -3.63994 -0.0824982 1.99102
H   -4.01224 -0.997836 2.04093
H   -3.76841 0.249667 1.06617
C   -4.38453 0.808231 2.94479
H   -4.24688 0.492565 3.86222
H   -5.34016 0.788307 2.73242
H   -4.05025 1.72652 2.86168
C   -1.97905 2.62715 -0.625685
H   -1.63822 2.81991 -1.53198
H   -1.45339 3.14495 0.0297277
C   -2.83113 2.30844 -0.368089
H   -3.56916 2.11207 -0.997758
H   -3.21784 2.45236 0.531996
C   -3.44069 3.00381 -0.531228
H   -3.97422 2.38937 -1.07614
H   -3.5626 3.92075 -0.8584
H   -3.73302 2.94923 0.404687
C   -2.10228 3.48825 -0.796468
H   -1.22791 3.51151 -0.354539
H   -2.6109 4.29152 -0.559503
H   -1.97512 3.45862 -1.76863
C   -1.02079 2.65956 3.28902
H   -0.333891 2.81087 3.98546
H   -1.64609 1.96651 3.62094
C   -1.768 3.92818 3.0464
H   -1.15057 4.61097 2.71007
H   -2.17175 4.23572 3.88243
H   -2.47194 3.76931 2.38167
C   1.36764 -4.22765 0.897066
H   0.640097 -4.75327 1.3192
H   1.99949 -3.94976 1.60914
C   2.07945 -5.06806 -0.11162
H   1.48169 -5.24284 -0.868325
H   2.34556 -5.91748 0.298459
H   2.87647 -4.59237 -0.429234
C   2.48713 -1.62914 -2.22997
H   2.17121 -1.17693 -3.05007
H   1.9536 -2.45477 -2.10882
C   3.93173 -1.98776 -2.37902
H   4.46264 -1.16982 -2.47144
H   4.0484 -2.5441 -3.17669
H   4.2293 -2.48257 -1.58771
C   4.1323 -1.21504 1.6741
H   4.49541 -0.544989 2.30505
H   4.3132 -0.897536 0.754517
C   4.81396 -2.51901 1.89066
H   4.53867 -2.8924 2.75328
H   5.78401 -2.38402 1.88734
H   4.5662 -3.13888 1.17193
C   -1.82568 -5.92341 -0.829543
H   -1.71032 -6.73717 -0.278664
H   -1.06668 -5.87353 -1.46237
C   -3.0684 -6.02894 -1.58099
H   -3.82609 -6.02938 -0.958867
H   -3.06709 -6.86104 -2.09745
H   -3.14574 -5.26613 -2.19132
C   3.63416 2.31158 -3.7028
H   3.33134 2.9622 -4.38463
H   4.0602 2.81091 -2.96312
C   4.55178 1.43372 -4.26726
H   4.83362 0.779203 -3.59308
H   5.33176 1.93385 -4.58156
H   4.13623 0.966729 -5.0216
C   -3.85886 -2.91687 4.12497
C   -4.81056 -3.04126 5.29826
C   -4.88135 -1.75607 6.07852
H   -5.51844 -1.85895 6.8182
H   -5.1763 -1.03119 5.48931
H   -3.99519 -1.54544 6.43956
C   -6.14374 -3.51993 4.82935
H   -6.04542 -4.39884 4.40831
H   -6.50685 -2.88448 4.17509
H   -6.7533 -3.5877 5.59287
C   0.705641 -3.38041 4.48125
C   -4.11186 -2.74738 -0.602001
C   -5.27462 -2.30572 -1.47531
C   -6.537 -3.08405 -1.16969
H   -6.33644 -4.04241 -1.16293
H   -7.2108 -2.89615 -1.85396
H   -6.88045 -2.81733 -0.291304
C   -5.50009 -0.826021 -1.28456
H   -5.77275 -0.652571 -0.36134
H   -6.20272 -0.521075 -1.89683
H   -4.66899 -0.341612 -1.47808
C   -0.923789 -2.64928 -3.19203
C   -2.39985 1.65203 -4.02432
C   -3.58882 1.91444 -4.92055
C   -4.88004 1.81472 -4.21607
H   -4.97967 2.5754 -3.6071
H   -4.90757 0.979673 -3.70548
H   -5.60889 1.82042 -4.87233
C   -3.3817 3.10554 -5.78017
H   -4.04894 3.11027 -6.49861
H   -2.48243 3.07302 -6.17231
H   -3.47477 3.91823 -5.2436
C   1.10153 4.04363 -1.9447
C   1.18411 5.51523 -1.58759
C   0.265184 6.35965 -2.41411
H   -0.664234 6.1062 -2.23182
H   0.461817 6.22251 -3.36505
H   0.396272 7.30388 -2.18731
C   2.57365 5.98075 -1.98829
H   2.5671 6.95267 -2.11928
H   2.83714 5.54122 -2.82253
H   3.21205 5.75069 -1.28241
C   1.04254 5.76578 -0.138817
H   0.117054 5.58705 0.133302
H   1.26539 6.69901 0.054284
H   1.64817 5.17487 0.356624
C   4.1572 2.34652 0.276696
C   5.59655 2.81727 0.385076
C   6.16024 3.20252 -0.893038
H   6.90089 3.82735 -0.748316
H   5.4694 3.63564 -1.43784
H   6.49058 2.4062 -1.35954
C   6.33589 1.82477 1.20169
H   6.32016 0.95472 0.750755
H   5.91248 1.7443 2.08088
H   7.264 2.11838 1.3109
C   2.16072 4.31513 3.89603
C   0.417247 0.514654 5.92106
C   -3.09593 -6.576 2.52821
C   -3.2611 -7.91772 3.21869
C   -2.21632 -8.19805 4.22212
H   -2.4549 -9.00462 4.72455
H   -2.14422 -7.43874 4.83983
H   -1.35769 -8.3361 3.77177
C   -3.48002 -8.96502 2.19786
H   -2.6476 -9.11752 1.70198
H   -4.18003 -8.67479 1.57592
H   -3.75661 -9.79583 2.63642
C   1.01108 1.36026 -6.22042
C   1.17363 1.03041 -7.69199
C   0.74759 -0.376054 -8.00887
H   1.24966 -1.00415 -7.44947
H   0.92587 -0.566996 -8.95398
H   -0.210668 -0.475659 -7.83368
C   0.295334 1.98195 -8.47719
H   -0.623596 1.93043 -8.14301
H   0.312376 1.73353 -9.42511
H   0.630921 2.89689 -8.37313
C   2.59725 1.24866 -8.0816
H   2.81355 2.20188 -8.0076
H   2.73227 0.954109 -9.00699
H   3.18059 0.73402 -7.48494
C   5.19542 2.04937 5.72468
C   6.56268 2.45196 6.23441
C   7.60221 2.41064 5.22195
H   7.36494 3.01342 4.48552
H   7.68873 1.49634 4.88004
H   8.45429 2.69415 5.61502
C   6.80388 1.89831 7.57648
H   7.42524 2.47984 8.06491
H   7.19059 1.00085 7.49608
H   5.95574 1.84471 8.06599
O   0.21537 -0.873865 2.27182
O   -0.607866 -0.989642 -0.289248
O   1.14741 0.90876 0.48966
O   -1.74834 -2.91049 1.62185
O   0.27436 0.914141 -2.30768
O   2.1332 1.13786 3.24576
O   -2.24778 -0.12286 2.28956
O   -1.88467 1.20795 -0.341038
O   -1.88467 1.20795 -0.341038
O   -0.388948 2.19671 2.08913
O   0.820999 -3.06946 0.252896
O   2.2905 -0.76725 -1.1029
O   2.71654 -1.33024 1.86609
O   -1.80339 -4.77096 0.0243977
O   2.48976 1.55272 -3.19737
O   3.20812 -0.400396 4.86675
O   -2.93731 -2.03533 4.19307
O   -4.00568 -3.72643 3.17611
O   -0.467601 -3.0623 4.20095
O   1.71371 -2.66762 4.21129
O   -2.97664 -2.2674 -0.872116
O   -4.35175 -3.54258 0.359442
O   -0.71798 -3.35868 -2.16801
O   -1.2384 -1.43408 -3.15669
O   -2.58599 0.879182 -3.02973
O   -1.30132 2.1668 -4.3421
O   1.4712 3.20581 -1.07441
O   0.695154 3.74673 -3.10998
O   3.8072 1.65409 -0.71191
O   3.36805 2.74342 1.1957
O   1.62457 3.99378 2.78262
O   2.62347 3.51256 4.71667
O   1.34535 1.35382 6.07431
O   0.322863 -0.285183 4.93973
O   -2.12325 -5.81737 2.82298
O   -3.95456 -6.18198 1.69432
O   0.696465 0.441212 -5.38451
O   1.19591 2.52843 -5.78607
O   4.99355 1.95036 4.4857
O   4.23848 1.89361 6.52478
