42

Ir  1.0809 -1.22832 1.1087
Ir  1.52454 1.18356 -0.498251
C   2.58159 2.17053 0.660707
O   3.21821 2.81595 1.36742
C   -0.146619 0.501753 -1.82082
C   -0.376412 1.85324 -1.3288
C   -0.541723 1.79368 0.101335
C   -0.696482 0.39671 0.449926
C   -0.442068 -0.395988 -0.721568
C   -0.526482 -1.80162 -0.34124
C   -1.01186 -1.84169 1.01679
C   -0.988413 -0.503197 1.56247
C   -1.51131 -0.0830239 2.90032
C   -1.57697 -3.05347 1.7041
C   -0.473723 -2.96576 -1.2748
C   -0.893448 2.97406 0.96499
C   -0.58393 3.06611 -2.18179
C   -0.0293774 0.121648 -3.2665
C   3.03063 0.699927 -1.49898
O   3.94746 0.446524 -2.12381
C   2.50304 -2.29976 0.526647
O   3.33897 -2.98742 0.171948
C   2.05752 -0.698122 2.61203
O   2.62263 -0.380827 3.54869
H   -1.64966 -0.85298 3.45356
H   -0.911034 0.520163 3.32229
H   -2.35076 0.35989 2.77507
H   -1.48552 -2.95818 2.64982
H   -1.10683 -3.83534 1.40751
H   -2.49849 -3.14336 1.50043
H   -0.321309 -3.77037 -0.76116
H   0.268416 -2.84447 -1.87667
H   -1.28972 -3.04156 -1.76759
H   -0.710551 2.7813 1.88002
H   -0.390481 3.74402 0.682821
H   -1.82083 3.1679 0.882274
H   -0.310757 3.84473 -1.67615
H   -0.0293774 2.98922 -2.95922
H   -1.51248 3.13758 -2.43645
H   0.531037 -0.665635 -3.33209
H   0.388003 0.840707 -3.74807
H   -0.906344 -0.0581167 -3.63592
