30

Rh  -0.828016 0.0207382 0.871147
Rh  0.828016 0.0207382 -0.871147
O   1.79726 -1.44784 0.137182
O   -1.79726 -1.44784 -0.137182
O   0.270034 -1.42183 1.80085
O   -0.270034 -1.42183 -1.80085
O   -0.230338 1.48411 -1.7973
O   0.230338 1.48411 1.7973
O   -1.81868 1.47761 -0.169601
O   1.81868 1.47761 0.169601
C   -1.9691 3.09799 -1.8802
C   1.9691 3.09799 1.8802
H   -1.34756 3.85535 -1.92364
H   1.34756 3.85535 1.92364
H   -2.75779 3.3499 -1.35316
H   2.75779 3.3499 1.35316
H   -2.24593 2.85257 -2.78925
H   2.24593 2.85257 2.78925
C   -1.29062 1.93431 -1.23598
C   1.29062 1.93431 1.23598
C   1.91217 -3.12347 1.82091
C   -1.91217 -3.12347 -1.82091
H   1.86987 -3.85646 1.16835
H   -1.86987 -3.85646 -1.16835
H   1.43113 -3.38189 2.63223
H   -1.43113 -3.38189 -2.63223
H   2.84658 -2.93657 2.04084
H   -2.84658 -2.93657 -2.04084
C   1.28592 -1.90453 1.23469
C   -1.28592 -1.90453 -1.23469
