60

Nd  1.61664 -0.640338 0.896536
Nd  -1.61664 0.640338 -0.896536
Si  3.18557 -0.321671 3.95724
Si  -3.18557 0.321671 -3.95724
Si  2.96255 -3.18465 3.14416
Si  -2.96255 3.18465 -3.14416
C   3.1239 5.65027 -1.33879
C   -3.1239 -5.65027 1.33879
N   2.71424 -1.51909 2.82524
N   -2.71424 1.51909 -2.82524
C   3.61594 7.20138 -3.24705
C   -3.61594 -7.20138 3.24705
O   -0.246021 -2.02346 1.13842
O   0.246021 2.02346 -1.13842
C   1.261 -0.703025 -4.50835
C   -1.261 0.703025 4.50835
C   3.76813 1.40862 -0.907666
C   -3.76813 -1.40862 0.907666
C   2.86758 4.1476 0.672866
C   -2.86758 -4.1476 -0.672866
O   0.0617913 1.02192 1.52663
O   -0.0617913 -1.02192 -1.52663
N   1.91553 -1.96603 -1.1225
N   -1.91553 1.96603 1.1225
C   -0.0469156 -5.07102 -6.6101
C   0.0469156 5.07102 6.6101
C   4.92385 -0.448841 4.59748
C   -4.92385 0.448841 -4.59748
N   2.33205 1.25889 -0.652906
N   -2.33205 -1.25889 0.652906
N   4.2144 -0.913416 -0.19063
N   -4.2144 0.913416 0.19063
C   3.03693 5.92672 -2.66374
C   -3.03693 -5.92672 2.66374
C   0.760949 -2.10665 -4.365
C   -0.760949 2.10665 4.365
C   0.337564 -4.04037 -2.96909
C   -0.337564 4.04037 2.96909
C   2.44533 4.98204 -3.52451
C   -2.44533 -4.98204 3.52451
C   0.0995527 -4.76948 -4.10414
C   -0.0995527 4.76948 4.10414
C   1.34225 2.76004 -3.98568
C   -1.34225 -2.76004 3.98568
C   0.656819 -2.69661 -3.09953
C   -0.656819 2.69661 3.09953
C   1.95558 3.77035 -3.04841
C   -1.95558 -3.77035 3.04841
C   2.64673 4.42972 -0.796077
C   -2.64673 -4.42972 0.796077
C   0.537813 -2.87794 -5.49715
C   -0.537813 2.87794 5.49715
C   0.177364 -4.22635 -5.3777
C   -0.177364 4.22635 5.3777
C   2.04255 3.48508 -1.67265
C   -2.04255 -3.48508 1.67265
C   0.857069 -1.86914 -1.8823
C   -0.857069 1.86914 1.8823
C   1.51732 2.19363 -1.11839
C   -1.51732 -2.19363 1.11839
