76

Fe  -2.90846 2.94596 -0.700522
Fe  1.79612 -3.43176 -0.108938
P   2.72536 -1.85904 -1.3599
P   -2.99479 1.73892 1.1389
C   -3.08922 3.84822 -2.23552
O   -3.25103 4.40933 -3.22545
C   -3.01294 1.41174 -1.61359
O   -3.0661 0.434321 -2.21607
C   -1.24923 3.57286 -0.431809
O   -0.194009 4.0105 -0.310031
C   -4.25886 3.88747 -0.00603567
O   -5.13147 4.49953 0.426593
C   -4.47962 0.70769 1.29282
C   -4.50735 -0.577816 0.741592
H   -3.72952 -0.93284 0.326643
C   -5.66659 -1.33677 0.79851
H   -5.68162 -2.2085 0.419188
C   -6.80272 -0.831111 1.40512
H   -7.58864 -1.36122 1.45958
C   -6.79116 0.455106 1.93598
H   -7.57593 0.810115 2.33504
C   -5.63539 1.21797 1.88322
H   -5.62961 2.09378 2.25129
C   2.20769 0.93947 0.62632
H   3.14155 1.02501 0.473344
C   -2.87193 2.60165 2.73657
C   -3.17475 1.93236 3.91659
H   -3.51454 1.04558 3.88422
C   -2.98289 2.55442 5.14237
H   -3.20711 2.09935 5.94516
C   -2.4651 3.83278 5.19545
H   -2.31138 4.24723 6.0362
C   -2.17269 4.50932 4.03317
H   -1.82712 5.39369 4.07354
C   -2.38189 3.9012 2.7993
H   -2.18887 4.37354 1.99724
C   1.01031 -4.69341 0.891006
O   0.497144 -5.50896 1.50406
C   2.91387 -4.64401 -0.792554
O   3.61542 -5.46997 -1.19528
O   -0.773282 -2.94427 -1.45227
C   2.31286 -2.55957 1.36839
O   2.67231 -2.05443 2.3409
C   4.47185 -1.45818 -1.04522
C   5.27973 -2.2558 -0.247889
H   4.91104 -3.0097 0.196771
C   6.62621 -1.95401 -0.099875
H   7.17867 -2.51145 0.435796
C   7.16711 -0.858709 -0.719293
H   8.08711 -0.652373 -0.603677
C   6.37772 -0.0591923 -1.50514
H   6.7545 0.697148 -1.93771
C   5.03586 -0.347917 -1.67512
H   4.49612 0.212723 -2.21964
C   2.68849 -2.12674 -3.15509
C   3.72869 -2.83156 -3.76819
H   4.46376 -3.14099 -3.25218
C   3.68245 -3.07629 -5.13279
H   4.37823 -3.5745 -5.54665
C   2.63301 -2.60233 -5.88977
H   2.61452 -2.76422 -6.82609
C   1.61015 -1.89356 -5.29448
H   0.89473 -1.55854 -5.82192
C   1.62749 -1.6681 -3.92155
H   0.91091 -1.20013 -3.50887
O   -1.89207 0.529588 1.27274
C   -0.525716 0.71861 1.0627
C   0.246341 1.42993 1.96367
H   -0.146622 1.82438 2.73286
C   1.60206 1.55311 1.72078
H   2.13256 2.06943 2.3139
C   0.248652 -3.11966 -0.949493
C   1.4102 0.201617 -0.228335
C   0.0475479 0.106952 -0.0471411
H   -0.491042 -0.367624 -0.669705
O   1.97295 -0.397328 -1.36378
