14

Mn  -1.10795 -1.60055 -3.21882
Mn  1.10795 1.60055 3.21882
P   -0.118524 -1.9991 -1.27669
P   0.118524 1.9991 1.27669
O   1.32405 -1.34553 -4.86521
O   -1.32405 1.34553 4.86521
O   -0.781687 1.32717 -3.037
O   0.781687 -1.32717 3.037
C   0.380087 -1.49382 -4.21365
C   -0.380087 1.49382 4.21365
C   -0.930329 0.183541 -3.09217
C   0.930329 -0.183541 3.09217
C   -0.00941694 -0.531168 -0.281657
C   0.00941694 0.531168 0.281657
