14

Mn  1.83998 -1.22449 3.07437
Mn  -1.83998 1.22449 -3.07437
P   2.08527 -0.220959 1.12772
P   -2.08527 0.220959 -1.12772
O   4.61037 -2.17438 3.11315
O   -4.61037 2.17438 -3.11315
O   0.849134 -3.61799 1.72513
O   -0.849134 3.61799 -1.72513
C   3.52187 -1.76935 3.06691
C   -3.52187 1.76935 -3.06691
C   1.27238 -2.66525 2.22447
C   -1.27238 2.66525 -2.22447
C   0.545095 -0.0181059 0.25763
C   -0.545095 0.0181059 -0.25763
