16

Br  -3.65132 0.908682 0.129208
C   -1.84518 1.31732 -2.26324
C   -1.39172 2.9414 -0.023549
C   2.4242 -0.462433 1.37825
C   1.90229 -1.90989 -0.749945
C   0.61891 -2.32601 1.61869
Fe  -1.26424 1.00149 -0.461208
Fe  0.933766 -0.941425 0.452494
O   -2.00774 1.45204 -3.10895
O   -1.31472 3.66289 0.145564
O   3.33112 -0.122648 1.96466
O   2.44131 -2.49965 -1.48428
O   0.345122 -3.11485 2.36547
S   -0.954514 -1.26774 -0.840837
S   -0.5695 0.351853 1.64785
S   1.00221 1.00897 -0.770178
