25

Cu  -0.921575 -1.37757 0.383489
H   -3.49713 -2.62205 -4.46963
Cu  -2.50062 -1.3608 -2.1192
H   0.267549 -2.65367 2.7612
Cl  -0.255272 -1.16188 -1.8094
Cl  -3.1577 -1.68181 0.0653
P   -3.81992 -1.63943 -3.80345
P   0.382757 -1.60654 2.07152
O   -5.2948 -1.92248 -3.283
O   -3.92047 -0.681161 -5.08416
O   1.84146 -1.8314 1.5228
O   0.47317 -0.61696 3.33631
C   -6.26394 -2.81813 -3.90317
C   -3.94466 0.784072 -5.04071
C   2.91643 0.584828 2.61165
C   1.69178 1.26162 2.53586
C   0.423277 0.859974 3.23897
C   1.70841 2.47606 1.82365
H   0.919186 3.00422 1.82824
C   2.78187 2.93464 1.13368
H   2.7471 3.77905 0.698785
C   3.91581 2.17245 1.06738
H   4.60978 2.38118 0.453185
C   4.02618 1.07503 1.92927
H   4.87134 0.66073 2.05142
