16

Fe  -0.701584 0.572681 0.959433
Fe  0.136212 -0.127351 -1.29169
S   -2.02849 -0.285673 -0.670624
S   -0.082982 2.02214 -0.655474
O   -2.36489 1.87263 3.02243
O   1.85345 1.22652 2.26492
O   -0.706924 -2.06539 2.25156
O   3.04153 0.244023 -0.958475
O   0.336984 -3.05056 -1.10998
O   -0.0715017 0.083833 -4.20326
C   -1.75083 1.40006 2.18383
C   0.865612 0.96488 1.75339
C   -0.728282 -1.03483 1.75606
C   1.91486 0.0678139 -1.07522
C   0.264898 -1.89452 -1.16523
C   0.0219427 0.00373778 -3.06166
