126

Nd  -1.33662 -1.65259 -1.39155
Nd  1.33662 1.65259 1.39155
N   -3.56507 -1.25478 -2.57697
N   3.56507 1.25478 2.57697
N   -0.996448 -2.07751 -4.02431
N   0.996448 2.07751 4.02431
N   -0.0401347 -3.87316 -1.32604
N   0.0401347 3.87316 1.32604
N   -2.89662 -3.65222 -0.2611
N   2.89662 3.65222 0.2611
C   -4.7871 -1.81554 -2.2667
C   4.7871 1.81554 2.2667
C   -5.66453 -1.6953 -3.36634
C   5.66453 1.6953 3.36634
H   -6.55857 -2.01181 -3.42191
H   6.55857 2.01181 3.42191
C   -4.94764 -1.01951 -4.34884
C   4.94764 1.01951 4.34884
H   -5.2701 -0.778491 -5.2099
H   5.2701 0.778491 5.2099
C   -3.69655 -0.763423 -3.8591
C   3.69655 0.763423 3.8591
C   -2.49942 -0.122308 -4.54976
C   2.49942 0.122308 4.54976
C   -1.22342 -0.711954 -3.97775
C   1.22342 0.711954 3.97775
C   -0.0678138 -0.0875465 -3.47527
C   0.0678138 0.0875465 3.47527
H   0.0470545 0.844568 -3.32845
H   -0.0470545 -0.844568 3.32845
C   0.866357 -1.0689 -3.23787
C   -0.866357 1.0689 3.23787
H   1.74102 -0.941934 -2.89131
H   -1.74102 0.941934 2.89131
C   0.292015 -2.27873 -3.59956
C   -0.292015 2.27873 3.59956
C   0.882964 -3.66595 -3.64505
C   -0.882964 3.66595 3.64505
C   0.480233 -4.49425 -2.43402
C   -0.480233 4.49425 2.43402
C   0.557734 -5.86455 -2.21984
C   -0.557734 5.86455 2.21984
H   0.862205 -6.51276 -2.8436
H   -0.862205 6.51276 2.8436
C   0.1121 -6.11871 -0.925683
C   -0.1121 6.11871 0.925683
H   0.0470545 -6.96226 -0.497859
H   -0.0470545 6.96226 0.497859
C   -0.222817 -4.87532 -0.389304
C   0.222817 4.87532 0.389304
C   -0.880196 -4.55136 0.934154
C   0.880196 4.55136 -0.934154
C   -1.89464 -3.45847 0.705826
C   1.89464 3.45847 -0.705826
C   -2.0787 -2.26906 1.36532
C   2.0787 2.26906 -1.36532
H   -1.52374 -1.90627 2.04513
H   1.52374 1.90627 -2.04513
C   -3.25922 -1.68618 0.829599
C   3.25922 1.68618 -0.829599
H   -3.65364 -0.859386 1.08117
H   3.65364 0.859386 -1.08117
C   -3.72007 -2.57723 -0.138642
C   3.72007 2.57723 0.138642
C   -5.06528 -2.46688 -0.931885
C   5.06528 2.46688 0.931885
C   -0.595101 0.405876 -0.189991
C   0.595101 -0.405876 0.189991
H   -0.395811 1.17564 -0.77862
H   0.395811 -1.17564 0.77862
H   -1.17221 0.667861 0.570569
H   1.17221 -0.667861 -0.570569
Na  -2.25585 -5.20455 -2.02102
Na  2.25585 5.20455 2.02102
O   -3.01979 -7.36344 -1.68794
O   3.01979 7.36344 1.68794
C   -4.25982 -7.69429 -1.09139
C   4.25982 7.69429 1.09139
H   -5.00023 -7.54661 -1.73224
H   5.00023 7.54661 1.73224
H   -4.41897 -7.13194 -0.292987
H   4.41897 7.13194 0.292987
C   -4.18647 -9.11145 -0.713498
C   4.18647 9.11145 0.713498
H   -3.93736 -9.20802 0.24042
H   3.93736 9.20802 -0.24042
H   -5.05559 -9.56081 -0.864068
H   5.05559 9.56081 0.864068
C   -3.16511 -9.67868 -1.56689
C   3.16511 9.67868 1.56689
H   -2.6572 -10.3777 -1.08512
H   2.6572 10.3777 1.08512
H   -3.57199 -10.0815 -2.37442
H   3.57199 10.0815 2.37442
C   -2.29737 -8.58308 -1.93234
C   2.29737 8.58308 1.93234
H   -1.46976 -8.60528 -1.38864
H   1.46976 8.60528 1.38864
H   -2.04826 -8.64611 -2.8888
H   2.04826 8.64611 2.8888
O   -3.19971 -5.35013 -4.0686
O   3.19971 5.35013 4.0686
C   -3.00734 -6.4633 -4.95483
C   3.00734 6.4633 4.95483
H   -3.61074 -7.21102 -4.7137
H   3.61074 7.21102 4.7137
H   -2.0704 -6.78508 -4.91509
H   2.0704 6.78508 4.91509
C   -3.32288 -5.95028 -6.29677
C   3.32288 5.95028 6.29677
H   -4.21415 -6.26616 -6.59049
H   4.21415 6.26616 6.59049
H   -2.64751 -6.24902 -6.95482
H   2.64751 6.24902 6.95482
C   -3.30766 -4.47949 -6.16762
C   3.30766 4.47949 6.16762
H   -2.40393 -4.11777 -6.34128
H   2.40393 4.11777 6.34128
H   -3.94843 -4.06138 -6.79599
H   3.94843 4.06138 6.79599
C   -3.70485 -4.24521 -4.78809
C   3.70485 4.24521 4.78809
H   -3.31596 -3.39964 -4.45085
H   3.31596 3.39964 4.45085
H   -4.69023 -4.19757 -4.70988
H   4.69023 4.19757 4.70988
