48

Nb  1.88019 -0.0726367 0.632932
Nb  -1.88019 -0.0726367 -0.632932
Cl  1.54339 -2.41171 0.568491
Cl  -1.54339 -2.41171 -0.568491
Cl  -0.49751 -0.0879574 1.5177
Cl  0.49751 -0.0879574 -1.5177
Cl  1.57053 2.24283 0.771687
Cl  -1.57053 2.24283 -0.771687
O   3.31354 0.00381064 -0.526406
O   -3.31354 0.00381064 0.526406
C   4.0865 -0.0243295 -1.68788
C   -4.0865 -0.0243295 1.68788
C   4.22404 1.1044 -2.47874
C   -4.22404 1.1044 2.47874
C   5.0113 0.999658 -3.62646
C   -5.0113 0.999658 3.62646
H   5.1416 1.77351 -4.16121
H   -5.1416 1.77351 4.16121
C   5.61396 -0.191607 -4.02226
C   -5.61396 -0.191607 4.02226
C   5.43298 -1.31408 -3.17143
C   -5.43298 -1.31408 3.17143
H   5.82751 -2.14109 -3.42704
H   -5.82751 -2.14109 3.42704
C   4.71811 -1.26406 -2.00453
C   -4.71811 -1.26406 2.00453
C   3.587 2.43793 -2.12786
C   -3.587 2.43793 2.12786
H   3.02053 2.26284 -1.32198
H   -3.02053 2.26284 1.32198
O   2.7297 -0.171283 2.25656
O   -2.7297 -0.171283 -2.25656
C   3.52908 -0.25414 3.3837
C   -3.52908 -0.25414 -3.3837
C   4.52628 0.694807 3.5802
C   -4.52628 0.694807 -3.5802
C   5.34973 0.530656 4.70226
C   -5.34973 0.530656 -4.70226
H   6.05374 1.15287 4.84572
H   -6.05374 1.15287 -4.84572
C   5.18142 -0.493331 5.60192
C   -5.18142 -0.493331 -5.60192
C   4.13898 -1.39069 5.38983
C   -4.13898 -1.39069 -5.38983
H   3.99601 -2.08637 6.01926
H   -3.99601 -2.08637 -6.01926
C   3.30286 -1.30001 4.28888
C   -3.30286 -1.30001 -4.28888
