48

W   -2.9271 -0.516405 -0.516405
W   2.9271 0.516405 -0.516405
W   2.9271 -0.516405 0.516405
W   -2.9271 0.516405 0.516405
W   -0.516405 -2.9271 -0.516405
W   -0.516405 2.9271 0.516405
W   0.516405 2.9271 -0.516405
W   0.516405 -2.9271 0.516405
W   -0.516405 -0.516405 -2.9271
W   0.516405 -0.516405 2.9271
W   -0.516405 0.516405 2.9271
W   0.516405 0.516405 -2.9271
O   1.887 1.887 -0.087485
O   -1.887 -1.887 -0.087485
O   1.887 -1.887 0.087485
O   -1.887 1.887 0.087485
O   1.887 0.087485 -1.887
O   -1.887 0.087485 1.887
O   -1.887 -0.087485 -1.887
O   1.887 -0.087485 1.887
O   0.087485 1.887 -1.887
O   0.087485 -1.887 1.887
O   -0.087485 1.887 1.887
O   -0.087485 -1.887 -1.887
O   -1.55286 -1.55286 0.287972
O   1.55286 1.55286 0.287972
O   1.55286 -1.55286 -0.287972
O   -1.55286 1.55286 -0.287972
O   0.287972 -1.55286 -1.55286
O   0.287972 1.55286 1.55286
O   -0.287972 1.55286 -1.55286
O   -0.287972 -1.55286 1.55286
O   -1.55286 0.287972 -1.55286
O   1.55286 0.287972 1.55286
O   -1.55286 -0.287972 1.55286
O   1.55286 -0.287972 -1.55286
O   -3.24181 0.673149 0.673149
O   3.24181 -0.673149 0.673149
O   3.24181 0.673149 -0.673149
O   -3.24181 -0.673149 -0.673149
O   0.673149 -3.24181 0.673149
O   0.673149 3.24181 -0.673149
O   -0.673149 3.24181 0.673149
O   -0.673149 -3.24181 -0.673149
O   0.673149 0.673149 -3.24181
O   -0.673149 0.673149 3.24181
O   0.673149 -0.673149 3.24181
O   -0.673149 -0.673149 -3.24181
