40

V   2.584 -1.61987 1.53896
V   -2.584 1.61987 -1.53896
V   1.47624 0.671041 -0.145071
V   -1.47624 -0.671041 0.145071
V   0.959282 -2.3338 -0.986471
V   -0.959282 2.3338 0.986471
V   0.240209 0.0733105 2.68497
V   -0.240209 -0.0733105 -2.68497
V   -0.198231 -2.90427 1.86726
V   0.198231 2.90427 -1.86726
K   2.45573 3.87318 1.29354
K   -2.45573 -3.87318 -1.29354
O   4.09988 -1.90614 1.99645
O   -4.09988 1.90614 -1.99645
O   1.97609 -0.417137 2.87327
O   -1.97609 0.417137 -2.87327
O   1.60917 -2.96349 2.27983
O   -1.60917 2.96349 -2.27983
O   2.58089 -2.39511 -0.14792
O   -2.58089 2.39511 0.14792
O   2.93693 0.121178 0.484983
O   -2.93693 -0.121178 -0.484983
O   1.8315 2.1073 -1.00504
O   -1.8315 -2.1073 1.00504
O   0.811581 1.53807 1.4228
O   -0.811581 -1.53807 -1.4228
O   -0.0264308 0.97398 4.01151
O   0.0264308 -0.97398 -4.01151
O   1.41793 -0.504793 -2.32234
O   -1.41793 0.504793 2.32234
O   0.544941 -0.956577 0.745361
O   -0.544941 0.956577 -0.745361
O   -0.43844 -1.54381 3.14881
O   0.43844 1.54381 -3.14881
O   1.23681 -3.2044 -2.31624
O   -1.23681 3.2044 2.31624
O   0.14226 -3.51641 0.129282
O   -0.14226 3.51641 -0.129282
O   -0.824796 -4.1994 2.55743
O   0.824796 4.1994 -2.55743
