16

Li  0.8959 -1.41408 1.46772
Li  -1.06663 -1.62687 -0.855664
Cr  1.17437 1.40552 0.337984
Cr  -1.6103 1.02552 -0.872469
O   -0.244487 2.08953 -0.0490772
O   0.590913 0.341525 1.58497
O   1.78434 2.79632 1.10196
O   2.19541 0.774725 -0.747092
O   -1.04011 -0.068875 -2.09551
O   -2.76395 1.86153 -1.41331
O   -1.84899 0.189525 0.533741
O   0.657214 -2.87327 0.319733
O   2.67278 -1.68767 1.65725
H   0.750037 -2.50087 -0.498027
H   1.18763 -2.88087 0.894541
H   -3.33414 2.56832 -1.36675
