70

W   -0.249475 0.209003 5.14841
W   -1.41482 3.12304 3.81445
W   -3.38306 0.341311 3.86794
W   2.66799 0.512961 2.87562
W   1.48497 3.33669 1.48308
W   -1.97028 3.44788 0.138156
W   -3.86471 0.679234 0.228822
W   -2.48303 -2.46597 1.57746
W   0.638302 -2.55977 2.80159
W   3.96616 -0.443712 -0.537909
W   2.80209 2.36564 -1.98085
W   -0.556443 2.47192 -3.30143
W   -2.51925 -0.251118 -3.17024
W   -1.17027 -3.36579 -1.87712
W   1.94851 -3.47456 -0.643378
W   3.27788 -2.0265 -3.86097
W   0.185733 -1.96334 -5.09719
O   0.27009 -0.112792 6.72662
O   -1.66736 4.56685 4.65803
O   -4.84142 -0.0234607 4.71775
O   4.10239 0.298936 3.78809
O   2.09145 4.90682 1.68747
O   -2.50881 5.06855 -0.0762533
O   -5.53375 0.543425 -0.0635825
O   -3.72731 -3.61474 1.82376
O   1.34693 -3.72037 3.80805
O   5.55948 -0.832879 -0.0784336
O   3.09053 1.61489 -3.57239
O   3.59859 3.84051 -2.19577
O   -0.553248 2.0665 5.25294
O   -0.900477 4.00948 -4.03012
O   -2.10939 -0.0908238 5.27759
O   -4.01063 -0.52579 -3.9165
O   1.40338 0.716161 4.30262
O   -2.26064 -4.64908 -2.20801
O   2.89348 -4.85256 -0.192126
O   4.56572 -3.10554 -4.22503
O   -0.504252 -3.00659 -6.31585
O   -0.0430552 -1.3883 4.25546
O   0.296718 1.69631 -4.6232
O   -3.05202 2.18682 4.28033
O   0.271155 3.37081 3.0962
O   -2.15412 3.46803 2.15008
O   -3.97015 0.883137 2.16837
O   -2.94018 -1.31911 3.1018
O   2.70602 2.40065 2.66864
O   1.99026 -1.22681 2.7033
O   -0.134656 3.71818 0.556553
O   3.65398 -0.708657 -4.97628
O   -3.71239 2.57227 0.128048
O   0.748329 -0.642797 -6.1071
O   -3.37156 -1.12017 0.548584
O   -1.15717 -3.27346 2.69167
O   4.26322 1.36652 -1.20859
O   3.06283 -2.04078 -0.107951
O   4.01079 -1.10428 -2.35564
O   1.021 2.83629 -2.26737
O   -2.20738 1.51763 -3.7467
O   -2.28194 -1.86467 -2.15113
O   -1.34783 -0.993348 -4.49578
O   0.324411 -4.38051 -1.16596
O   -0.39774 -3.14902 -3.50369
O   2.51643 -3.24746 -2.38685
O   1.94659 -2.80796 -5.04864
O   3.43137 0.290202 1.16571
O   2.34068 2.83013 -0.0366833
O   -1.56405 2.96127 -1.55875
O   -3.27463 0.489758 -1.53003
O   -1.74618 -3.11738 -0.00131451
O   1.10621 -3.23766 1.12157
