70

V   3.55271e-15 -1.65959 -3.74626e-31
V   3.55271e-15 1.65959 -3.74626e-31
V   -0.736356 8.88178e-16 2.60411
V   0.736356 8.88178e-16 -2.60411
V   -2.68621 8.88178e-16 0.203858
V   2.68621 8.88178e-16 -0.203858
V   1.95996 -1.52467 2.38341
V   1.95996 1.52467 2.38341
V   -1.95996 1.52467 -2.38341
V   -1.95996 -1.52467 -2.38341
O   -3.88052 8.88178e-16 1.30156
O   3.88052 8.88178e-16 -1.30156
O   -0.854913 8.88178e-16 -1.0347
O   0.854913 8.88178e-16 1.0347
O   1.43913 -1.23694 -1.18508
O   1.43913 1.23694 -1.18508
O   -1.43913 1.23694 1.18508
O   -1.43913 -1.23694 1.18508
O   0.860053 -2.66663 1.04777
O   0.860053 2.66663 1.04777
O   -0.860053 2.66663 -1.04777
O   -0.860053 -2.66663 -1.04777
O   -2.04734 8.88178e-16 3.55496
O   2.04734 8.88178e-16 -3.55496
O   0.294679 -1.34127 3.23404
O   0.294679 1.34127 3.23404
O   -0.294679 1.34127 -3.23404
O   -0.294679 -1.34127 -3.23404
O   -3.11983 1.34325 -0.919567
O   -3.11983 -1.34325 -0.919567
O   3.11983 -1.34325 0.919567
O   3.11983 1.34325 0.919567
O   2.57844 8.88178e-16 3.1711
O   -2.57844 8.88178e-16 -3.1711
O   2.62128 -2.70638 3.23607
O   2.62128 2.70638 3.23607
O   -2.62128 2.70638 -3.23607
O   -2.62128 -2.70638 -3.23607
Ca  -4.56873 8.88178e-16 3.59809
Ca  4.56873 8.88178e-16 -3.59809
O   -3.75202 1.82611 4.9006
O   -3.75202 -1.82611 4.9006
O   3.75202 -1.82611 -4.9006
O   3.75202 1.82611 -4.9006
H   -4.24887 2.44408 5.27992
H   -4.24887 -2.44408 5.27992
H   4.24887 -2.44408 -5.27992
H   4.24887 2.44408 -5.27992
H   -3.64923 1.26178 5.52949
H   -3.64923 -1.26178 5.52949
H   3.64923 -1.26178 -5.52949
H   3.64923 1.26178 -5.52949
O   -5.86446 1.70788 2.54362
O   -5.86446 -1.70788 2.54362
O   5.86446 -1.70788 -2.54362
O   5.86446 1.70788 -2.54362
H   -5.5852 1.98706 1.82859
H   -5.5852 -1.98706 1.82859
H   5.5852 -1.98706 -1.82859
H   5.5852 1.98706 -1.82859
H   -6.2705 2.27518 2.98988
H   -6.2705 -2.27518 2.98988
H   6.2705 -2.27518 -2.98988
H   6.2705 2.27518 -2.98988
O   -6.45039 8.88178e-16 5.02263
O   6.45039 8.88178e-16 -5.02263
H   -6.78448 0.635859 5.37969
H   -6.78448 -0.635859 5.37969
H   6.78448 -0.635859 -5.37969
H   6.78448 0.635859 -5.37969
