10

Ca  2.70772 3.0382 1.3853
V   1.3968 -0.0656667 -0.200996
V   -1.93221 -0.633761 -0.226509
O   -0.22997 -0.517222 -0.818822
O   1.99357 -1.24947 0.876391
O   1.25774 1.34673 0.63144
O   2.51346 0.0938861 -1.47208
O   -2.30187 0.508455 0.948497
O   -2.32493 -2.16122 0.335669
O   -3.08032 -0.359932 -1.45889
