56

W   -0.168753 -3.54373 0.00814
W   -0.168753 3.54373 0.00814
W   -2.5483 -1.8684 -1.56787
W   -2.5483 1.8684 -1.56787
W   0.567381 -1.85283 -2.80071
W   0.567381 1.85283 -2.80071
W   3.23767 0 -1.00325
W   2.51597 -1.6691 1.82373
W   2.51597 1.6691 1.82373
W   -0.129575 0 3.71961
W   -2.52356 -1.6691 2.07884
W   -2.52356 1.6691 2.07884
K   -1.69669 0 -5.14337
K   3.82122 -3.73057 -1.76342
K   3.82122 3.73057 -1.76342
Si  -0.185249 0 0.25678
O   -3.99376 -2.48809 -2.41092
O   -3.99376 2.48809 -2.41092
O   -3.05968 -1.33591 0.177785
O   -3.05968 1.33591 0.177785
O   -0.282163 -1.39196 -0.6031
O   -0.282163 1.39196 -0.6031
O   -1.30285 -1.98673 -2.99755
O   -1.30285 1.98673 -2.99755
O   -2.62459 0 -2.06386
O   -1.96682 -3.3927 -0.92944
O   -1.96682 3.3927 -0.92944
O   -3.73601 -2.66714 2.84419
O   -3.73601 2.66714 2.84419
O   -3.39578 0 2.60461
O   -1.58947 -1.34992 3.72479
O   -1.58947 1.34992 3.72479
O   -1.2946 -2.84464 1.39379
O   -1.2946 2.84464 1.39379
O   -1.00592 0 1.36012
O   0.371491 0 5.43937
O   0.891115 -1.32501 3.10707
O   0.891115 1.32501 3.10707
O   2.99848 0 2.40907
O   3.31603 -2.7808 2.8921
O   3.31603 2.7808 2.8921
O   3.67894 -1.21913 0.131165
O   3.67894 1.21913 0.131165
O   1.619 0 0.568875
O   1.386 -2.78703 0.900395
O   1.386 2.78703 0.900395
O   4.7553 0 -2.03148
O   2.2809 -1.50095 -1.7932
O   2.2809 1.50095 -1.7932
O   1.1633 -2.47563 -4.23816
O   1.1633 2.47563 -4.23816
O   0.289011 0 -3.26562
O   0.653985 -3.52816 -1.82558
O   0.653985 3.52816 -1.82558
O   0.0745634 -5.05869 0.42254
O   0.0745634 5.05869 0.42254
