21

Nb  2.53455 8.88178e-16 -0.480713
O   4.28283 8.88178e-16 -0.910417
O   1.80979 -1.41523 -1.56818
O   1.80979 1.41523 -1.56818
O   0.943327 -2.98994 3.0422
O   0.943327 2.98994 3.0422
O   -1.26496 -1.36609 2.08784
O   -1.26496 1.36609 2.08784
O   0.279638 -2.78433 0.207532
O   0.279638 2.78433 0.207532
O   -3.75604 8.88178e-16 1.28619
O   -1.96595 -1.38314 -0.619479
O   -1.96595 1.38314 -0.619479
O   -0.527859 -2.9428 -2.64131
O   -0.527859 2.9428 -2.64131
O   -0.407516 8.88178e-16 -2.4715
Nb  0.615394 -1.74392 1.81425
Nb  0.615394 1.74392 1.81425
Nb  -2.05681 8.88178e-16 0.80719
Nb  -0.187892 -1.68354 -1.43823
Nb  -0.187892 1.68354 -1.43823
