10

Re  -0.420381 -0.725637 -0.174177
Re  -0.420381 -0.725637 0.174177
O   -0.245949 1.29777 -0.261265
O   -0.245949 1.29777 0.261266
O   -0.420381 -0.725637 -1.96123
O   -0.420381 -0.725637 1.96123
O   -0.289557 0.835529 -0.627037
O   -0.289557 0.835529 0.627037
O   1.37627 -0.682029 -0.209012
O   1.37627 -0.682029 0.209012
