60

W   -2.84468 -0.4277 -0.4277
W   2.84468 0.4277 -0.4277
W   2.84468 -0.4277 0.4277
W   -2.84468 0.4277 0.4277
W   -0.4277 -2.84468 -0.4277
W   -0.4277 2.84468 0.4277
W   0.4277 2.84468 -0.4277
W   0.4277 -2.84468 0.4277
W   -0.4277 -0.4277 -2.84468
W   0.4277 -0.4277 2.84468
W   -0.4277 0.4277 2.84468
W   0.4277 0.4277 -2.84468
O   -4.15597 -1.71903 0.156275
O   4.15597 1.71903 0.156275
O   4.15597 -1.71903 -0.156275
O   -4.15597 1.71903 -0.156275
O   0.156275 -4.15597 -1.71903
O   0.156275 4.15597 1.71903
O   -0.156275 4.15597 -1.71903
O   -0.156275 -4.15597 1.71903
O   -1.71903 0.156275 -4.15597
O   1.71903 0.156275 4.15597
O   -1.71903 -0.156275 4.15597
O   1.71903 -0.156275 -4.15597
O   1.71903 4.15597 0.156275
O   -1.71903 -4.15597 0.156275
O   1.71903 -4.15597 -0.156275
O   -1.71903 4.15597 -0.156275
O   4.15597 -0.156275 -1.71903
O   -4.15597 -0.156275 1.71903
O   -4.15597 0.156275 -1.71903
O   4.15597 0.156275 1.71903
O   -0.156275 1.71903 -4.15597
O   -0.156275 -1.71903 4.15597
O   0.156275 1.71903 4.15597
O   0.156275 -1.71903 -4.15597
O   -1.54277 -1.54277 0.54285
O   1.54277 1.54277 0.54285
O   1.54277 -1.54277 -0.54285
O   -1.54277 1.54277 -0.54285
O   0.54285 -1.54277 -1.54277
O   0.54285 1.54277 1.54277
O   -0.54285 1.54277 -1.54277
O   -0.54285 -1.54277 1.54277
O   -1.54277 0.54285 -1.54277
O   1.54277 0.54285 1.54277
O   -1.54277 -0.54285 1.54277
O   1.54277 -0.54285 -1.54277
O   -3.0409 0.739075 0.739075
O   3.0409 -0.739075 0.739075
O   3.0409 0.739075 -0.739075
O   -3.0409 -0.739075 -0.739075
O   0.739075 -3.0409 0.739075
O   0.739075 3.0409 -0.739075
O   -0.739075 3.0409 0.739075
O   -0.739075 -3.0409 -0.739075
O   0.739075 0.739075 -3.0409
O   -0.739075 0.739075 3.0409
O   0.739075 -0.739075 3.0409
O   -0.739075 -0.739075 -3.0409
