39

W   1.02312 0.305386 2.71461
W   0.17462 2.85564 0.145673
W   -2.48842 0.576001 1.40942
W   3.40674 -0.980964 0.807273
W   2.67238 1.63665 -1.72098
W   -0.355943 1.99402 -3.0197
W   -3.09815 -0.284544 -1.76974
W   -2.48059 -2.61154 0.467997
W   0.968319 -2.89304 1.84482
O   1.08751 1.16483 4.22854
O   -0.0185641 4.40002 0.935434
O   -3.42392 1.45129 2.56308
O   5.12419 -1.01387 1.07582
O   4.12038 2.44997 -2.22705
O   -1.05267 2.93354 -4.28687
O   -4.50348 0.0347442 -2.70546
O   -3.4277 -3.87587 1.12986
O   1.0711 -4.27797 2.86533
O   0.975137 1.82448 1.5124
O   -1.4605 2.01108 0.585003
O   -0.893577 0.24762 2.38343
O   2.8691 0.147752 2.40609
O   0.872863 -1.50795 3.29455
O   1.95116 3.12539 -0.613573
O   -0.595593 3.33038 -1.57437
O   -3.61963 0.733819 -0.155513
O   -3.12719 -1.17155 1.70461
O   3.2479 0.712794 -0.214198
O   1.45494 2.48413 -3.14986
O   -2.00849 1.15431 -2.31199
O   -3.74336 -1.85749 -0.816234
O   -0.912516 -2.72739 1.62083
O   2.90067 -2.47246 1.87834
O   3.21507 -1.91005 -0.742079
O   2.62794 0.158265 -2.78167
O   -1.59182 -3.42121 -0.905053
O   1.17085 -3.6078 0.193882
O   -2.10066 -1.43174 -2.92096
O   -0.0311906 0.313323 -3.85168
