149

Nd  3.08061 -2.71039 -0.458016
Nd  -3.08061 -2.71039 0.458016
Nd  1.8792 2.63944 2.47943
Nd  -1.8792 2.63944 -2.47943
Mo  -7.10543e-15 -0.0352563 -5.05113e-31
Mo  0.398684 -3.62618 2.45103
Mo  -0.398684 -3.62618 -2.45103
Mo  -4.14137 1.25447 0.557954
Mo  4.14137 1.25447 -0.557954
Mo  2.52137 -1.33514 3.31187
Mo  -2.52137 -1.33514 -3.31187
Mo  -1.99636 3.52788 1.42105
Mo  1.99636 3.52788 -1.42105
Mo  1.88129 -3.84869 5.47158
Mo  -1.88129 -3.84869 -5.47158
Mo  -5.2156 3.86388 2.43033
Mo  5.2156 3.86388 -2.43033
Mo  -7.10416 1.11608 1.68368
Mo  7.10416 1.11608 -1.68368
Mo  -1.38934 -3.35556 6.21635
Mo  1.38934 -3.35556 -6.21635
Mo  -0.593181 -5.92537 4.44283
Mo  0.593181 -5.92537 -4.44283
Mo  -5.51928 1.14277 4.473
Mo  5.51928 1.14277 -4.473
Mo  -3.3883 3.47367 5.28525
Mo  3.3883 3.47367 -5.28525
Mo  -2.65738 5.96014 3.34598
Mo  2.65738 5.96014 -3.34598
Mo  0.761895 -1.06635 7.0619
Mo  -0.761895 -1.06635 -7.0619
Mo  3.85672 -1.1777 6.20594
Mo  -3.85672 -1.1777 -6.20594
O   2.26682 -3.52949 3.65188
O   -2.26682 -3.52949 -3.65188
O   0.697351 -1.76839 2.82727
O   -0.697351 -1.76839 -2.82727
O   -4.19449 3.47171 0.867916
O   4.19449 3.47171 -0.867916
O   -3.08011 3.85027 3.19376
O   3.08011 3.85027 -3.19376
O   -2.29278 5.47791 1.51494
O   2.29278 5.47791 -1.51494
O   1.92421 -1.60703 5.33403
O   -1.92421 -1.60703 -5.33403
O   -1.93286 -3.33628 7.84252
O   1.93286 -3.33628 -7.84252
O   4.1668 -1.55076 4.33444
O   -4.1668 -1.55076 -4.33444
O   1.33068 -3.73534 0.987443
O   -1.33068 -3.73534 -0.987443
O   -0.496625 3.43202 2.24014
O   0.496625 3.43202 -2.24014
O   3.99376 0.518672 6.11642
O   -3.99376 0.518672 -6.11642
O   0.436061 -5.54615 2.85535
O   -0.436061 -5.54615 -2.85535
O   -0.811558 -1.51457 6.03816
O   0.811558 -1.51457 -6.03816
O   -1.72175 3.34698 5.66159
O   1.72175 3.34698 -5.66159
O   2.33258 0.367771 3.40531
O   -2.33258 0.367771 -3.40531
O   4.06125 -0.441686 -0.773073
O   -4.06125 -0.441686 0.773073
O   3.25488 -1.6454 1.77941
O   -3.25488 -1.6454 -1.77941
O   3.49714 -4.93077 -1.5097
O   -3.49714 -4.93077 1.5097
O   -5.1341 1.60507 2.38686
O   5.1341 1.60507 -2.38686
O   -2.50908 1.70713 1.51517
O   2.50908 1.70713 -1.51517
O   -7.27114 1.33598 3.56898
O   7.27114 1.33598 -3.56898
O   1.23897 -3.49023 -1.9419
O   -1.23897 -3.49023 1.9419
O   -7.13617 -0.586045 1.59937
O   7.13617 -0.586045 -1.59937
O   -3.47637 5.44171 5.01017
O   3.47637 5.44171 -5.01017
O   -6.01487 1.42931 0.104596
O   6.01487 1.42931 -0.104596
O   -5.02508 5.58258 2.53294
O   5.02508 5.58258 -2.53294
O   3.43657 -3.6202 6.21325
O   -3.43657 -3.6202 -6.21325
O   -5.39712 3.37445 4.25508
O   5.39712 3.37445 -4.25508
O   -6.17926 1.30632 6.05337
O   6.17926 1.30632 -6.05337
O   2.63367 -1.2917 7.68033
O   -2.63367 -1.2917 -7.68033
O   -4.1893 3.54323 6.80448
O   4.1893 3.54323 -6.80448
O   0.56065 2.23921 4.55542
O   -0.56065 2.23921 -4.55542
O   5.584 -2.69212 -0.597961
O   -5.584 -2.69212 0.597961
O   3.87956 4.24802 1.88319
O   -3.87956 4.24802 -1.88319
O   -3.65634 1.61598 4.81196
O   3.65634 1.61598 -4.81196
O   1.59024 -5.56752 5.48198
O   -1.59024 -5.56752 -5.48198
O   -2.12839 -6.01761 3.68893
O   2.12839 -6.01761 -3.68893
O   -1.16283 -5.31718 6.16673
O   1.16283 -5.31718 -6.16673
O   3.52656 -2.15044 -2.87361
O   -3.52656 -2.15044 2.87361
O   -0.145354 -3.80381 4.50073
O   0.145354 -3.80381 -4.50073
O   1.60754 3.6056 0.266776
O   -1.60754 3.6056 -0.266776
O   4.12354 -4.3372 1.17378
O   -4.12354 -4.3372 -1.17378
O   -2.82055 -3.22768 5.27877
O   2.82055 -3.22768 -5.27877
O   0.12805 -1.18223 8.64781
O   -0.12805 -1.18223 -8.64781
O   0.539885 0.982279 1.33603
O   -0.539885 0.982279 -1.33603
O   0.737151 -3.30706 6.88188
O   -0.737151 -3.30706 -6.88188
O   -8.65027 1.63517 1.11824
O   8.65027 1.63517 -1.11824
O   -1.04343 6.03964 3.87946
O   1.04343 6.03964 -3.87946
O   0.783871 0.613313 6.70851
O   -0.783871 0.613313 -6.70851
O   -6.83335 3.61214 1.84876
O   6.83335 3.61214 -1.84876
O   1.52102 4.96502 3.3351
O   -1.52102 4.96502 -3.3351
O   -0.150545 -7.55104 4.77233
O   0.150545 -7.55104 -4.77233
O   1.33414 -1.04878 -0.539949
O   -1.33414 -1.04878 0.539949
O   -3.55251 1.53616 -1.04574
O   3.55251 1.53616 1.04574
O   -5.2535 -0.532837 4.25455
O   5.2535 -0.532837 -4.25455
O   3.61654 2.6701 4.28912
O   -3.61654 2.6701 -4.28912
O   -3.19605 7.58529 3.17355
O   3.19605 7.58529 -3.17355
O   5.3279 -1.72478 6.91668
O   -5.3279 -1.72478 -6.91668
