45

Ge  0.999264 0.0116513 0.194626
W   0.138903 -1.64799 3.17444
W   0.943271 -3.50647 0.113004
W   0.103372 1.73126 3.13495
W   1.60456 -1.86221 -2.73086
W   0.841595 3.52755 0.00400486
W   1.55222 1.81418 -2.81052
W   -1.59419 -1.91772 -1.52153
W   -2.38302 -0.00484479 1.59855
W   -1.64511 1.81686 -1.5973
Na  -6.20483 0.09324 0.925418
O   0.538152 1.39286 -0.768882
O   0.063875 0.048656 4.16294
O   -0.155022 2.82624 4.44932
O   2.71919 0.048656 0.685083
O   -0.0265391 0.015218 1.62161
O   0.600015 -1.39809 -0.739887
O   1.88485 1.67374 2.95723
O   0.98705 -5.19888 0.425064
O   1.93243 -1.53631 3.03391
O   -1.05916 3.41921 -0.827261
O   -2.21551 1.27695 0.193332
O   -0.908473 -3.498 -0.677005
O   0.0289783 -2.85153 1.67981
O   -1.6873 -0.0828668 -2.01838
O   0.825257 5.2204 0.289857
O   -1.91255 1.36611 2.7444
O   3.16492 -1.3602 -1.95121
O   1.4994 -3.53367 -1.76051
O   -1.82848 -1.32676 2.80461
O   2.46699 -2.92733 0.713642
O   2.39878 2.9377 0.641721
O   1.39471 3.52844 -1.88088
O   1.21388 -0.029366 -3.20166
O   3.14113 1.41961 -2.09776
O   2.10216 -2.46588 -4.26494
O   1.93561 2.43836 -4.34217
O   -2.12986 -1.34014 0.206567
O   -0.0249529 2.89089 1.62152
O   -0.408816 -2.12927 -2.97007
O   -3.14662 2.28454 -2.2504
O   -0.442127 2.09283 -3.05477
O   -3.11489 -2.51715 -2.20168
O   -0.112195 -2.70218 4.49381
O   -4.0809 -0.0382828 1.79828
