81

Si  -5.32907e-15 -3.55271e-15 -3.55271e-15
W   -5.32907e-15 2.48525 2.48525
W   2.48525 -2.48525 -3.55271e-15
W   -2.48525 -3.55271e-15 -2.48525
W   -5.32907e-15 -2.48525 -2.48525
W   2.48525 -3.55271e-15 2.48525
W   -2.48525 2.48525 -3.55271e-15
W   2.48525 2.48525 -3.55271e-15
W   -2.48525 -3.55271e-15 2.48525
W   2.48525 -3.55271e-15 -2.48525
W   -2.48525 -2.48525 -3.55271e-15
W   -5.32907e-15 2.48525 -2.48525
W   -5.32907e-15 -2.48525 2.48525
O   -0.901649 0.901649 0.901649
O   0.901649 -0.901649 0.901649
O   -0.901649 -0.901649 -0.901649
O   0.901649 0.901649 -0.901649
O   0.901649 -0.901649 -0.901649
O   -0.901649 0.901649 -0.901649
O   0.901649 0.901649 0.901649
O   -0.901649 -0.901649 0.901649
O   -1.12486 1.12486 2.91762
O   1.12486 -2.91762 1.12486
O   -2.91762 -1.12486 -1.12486
O   -1.12486 -2.91762 -1.12486
O   1.12486 -1.12486 2.91762
O   -2.91762 1.12486 1.12486
O   -1.12486 -1.12486 -2.91762
O   1.12486 2.91762 -1.12486
O   -1.12486 2.91762 1.12486
O   1.12486 1.12486 -2.91762
O   2.91762 -1.12486 1.12486
O   2.91762 1.12486 -1.12486
O   1.12486 -1.12486 -2.91762
O   -1.12486 2.91762 -1.12486
O   2.91762 1.12486 1.12486
O   1.12486 2.91762 1.12486
O   -1.12486 1.12486 -2.91762
O   2.91762 -1.12486 -1.12486
O   1.12486 1.12486 2.91762
O   -1.12486 -2.91762 1.12486
O   1.12486 -2.91762 -1.12486
O   -1.12486 -1.12486 2.91762
O   -2.91762 1.12486 -1.12486
O   -2.91762 -1.12486 1.12486
O   -1.45881 1.45881 3.32186
O   1.45881 -3.32186 1.45881
O   -3.32186 -1.45881 -1.45881
O   -1.45881 -3.32186 -1.45881
O   1.45881 -1.45881 3.32186
O   -3.32186 1.45881 1.45881
O   -1.45881 -1.45881 -3.32186
O   1.45881 3.32186 -1.45881
O   -1.45881 3.32186 1.45881
O   1.45881 1.45881 -3.32186
O   3.32186 -1.45881 1.45881
O   3.32186 1.45881 -1.45881
O   1.45881 -1.45881 -3.32186
O   -1.45881 3.32186 -1.45881
O   3.32186 1.45881 1.45881
O   1.45881 3.32186 1.45881
O   -1.45881 1.45881 -3.32186
O   3.32186 -1.45881 -1.45881
O   1.45881 1.45881 3.32186
O   -1.45881 -3.32186 1.45881
O   1.45881 -3.32186 -1.45881
O   -1.45881 -1.45881 3.32186
O   -3.32186 1.45881 -1.45881
O   -3.32186 -1.45881 1.45881
O   -5.32907e-15 3.68217 3.68217
O   3.68217 -3.68217 -3.55271e-15
O   -3.68217 -3.55271e-15 -3.68217
O   -5.32907e-15 -3.68217 -3.68217
O   3.68217 -3.55271e-15 3.68217
O   -3.68217 3.68217 -3.55271e-15
O   3.68217 3.68217 -3.55271e-15
O   -3.68217 -3.55271e-15 3.68217
O   3.68217 -3.55271e-15 -3.68217
O   -3.68217 -3.68217 -3.55271e-15
O   -5.32907e-15 3.68217 -3.68217
O   -5.32907e-15 -3.68217 3.68217
