53

P   -3.55271e-15 -2.66454e-15 -1.77636e-15
O   0.9894 0.9894 -0.9894
O   0.9894 -0.9894 0.9894
O   -0.9894 0.9894 0.9894
O   -0.9894 -0.9894 -0.9894
O   -2.84016 0.968448 -0.968448
O   0.968448 0.968448 2.84016
O   0.968448 -2.84016 -0.968448
O   -2.84016 -0.968448 0.968448
O   0.968448 -0.968448 -2.84016
O   0.968448 2.84016 0.968448
O   2.84016 0.968448 0.968448
O   -0.968448 0.968448 -2.84016
O   -0.968448 -2.84016 0.968448
O   2.84016 -0.968448 -0.968448
O   -0.968448 -0.968448 2.84016
O   -0.968448 2.84016 -0.968448
O   3.54089 1.48992 -1.48992
O   1.48992 1.48992 -3.54089
O   1.48992 3.54089 -1.48992
O   3.54089 -1.48992 1.48992
O   1.48992 -1.48992 3.54089
O   1.48992 -3.54089 1.48992
O   -3.54089 1.48992 1.48992
O   -1.48992 1.48992 3.54089
O   -1.48992 3.54089 1.48992
O   -3.54089 -1.48992 -1.48992
O   -1.48992 -1.48992 -3.54089
O   -1.48992 -3.54089 -1.48992
O   -0.09312 -3.74808 3.74808
O   -3.74808 -3.74808 0.09312
O   -3.74808 -0.09312 3.74808
O   -0.09312 3.74808 -3.74808
O   -3.74808 3.74808 -0.09312
O   -3.74808 0.09312 -3.74808
O   0.09312 -3.74808 -3.74808
O   3.74808 -3.74808 -0.09312
O   3.74808 -0.09312 -3.74808
O   0.09312 3.74808 3.74808
O   3.74808 3.74808 0.09312
O   3.74808 0.09312 3.74808
W   0.146664 2.49096 -2.49096
W   2.49096 2.49096 -0.146664
W   2.49096 0.146664 -2.49096
W   0.146664 -2.49096 2.49096
W   2.49096 -2.49096 0.146664
W   2.49096 -0.146664 2.49096
W   -0.146664 2.49096 2.49096
W   -2.49096 2.49096 0.146664
W   -2.49096 0.146664 2.49096
W   -0.146664 -2.49096 -2.49096
W   -2.49096 -2.49096 -0.146664
W   -2.49096 -0.146664 -2.49096
