11

Na  2.78405 2.78405 1.74295
Na  -2.78405 -2.78405 1.74295
V   1.19352 1.19352 -0.389254
V   -1.19352 -1.19352 -0.389254
O   0 -1.77636e-15 0.241715
O   1.22164 1.22164 -2.03775
O   -1.22164 -1.22164 -2.03775
O   -2.72698 -0.776656 0.281598
O   2.72698 0.776656 0.281598
O   0.776656 2.72698 0.281598
O   -0.776656 -2.72698 0.281598
