47

W   -2.4333 2.03261 1.38193
W   -2.40195 1.3242 -2.23565
W   0.321091 3.2545 -0.704537
W   -0.228823 0.531397 3.39683
W   -2.71067 -1.2691 2.0155
W   -0.184203 -0.862879 -3.49429
W   2.53763 1.72446 1.31427
W   2.54366 1.10445 -1.998
W   -2.68414 3.54071 -1.60714
W   2.19273 -1.86941 2.02437
W   -0.265001 -3.63788 0.631173
W   2.24941 -2.50481 -1.28421
O   3.39024 -3.42339 -2.17414
O   -2.8578 1.61312 -0.422658
O   -0.939128 2.95452 0.667683
O   -3.45112 0.528061 1.9683
O   -1.50592 1.90206 3.03079
O   -3.52469 3.29763 1.72646
O   -1.45527 0.60925 -3.66091
O   -0.937922 2.50164 -1.87958
O   -3.43424 -0.319025 -2.20961
O   -3.52107 2.31836 -3.04703
O   0.208937 4.92083 -1.03264
O   1.73446 3.31753 0.642477
O   0.903565 -0.98309 3.04485
O   1.12546 1.52584 2.53287
O   0.112461 0.823944 5.03874
O   -1.73385 -0.661437 3.55838
O   -3.15446 -1.46148 0.176476
O   -1.46251 -2.66466 1.74099
O   -4.04566 -2.06163 2.76944
O   1.15923 0.440032 -3.04857
O   0.942155 -2.0774 -2.55039
O   -1.65305 -2.02079 -3.19689
O   0.186024 -1.19655 -5.1133
O   3.79664 2.40145 2.26315
O   3.47465 1.59348 -0.369092
O   2.84394 -0.160672 1.57575
O   1.75738 2.8216 -1.93966
O   3.81714 1.41935 -3.11109
O   2.84273 -0.723108 -1.52942
O   -1.42874 -3.11315 -0.77838
O   3.33717 -2.32291 3.20137
O   3.0791 -2.55749 0.448449
O   1.10134 -3.4434 1.95245
O   1.13993 -3.93349 -0.629563
O   -0.78356 -5.23328 0.914063
