38

V   0.177415 2.11326 -1.64469
V   -0.177415 -2.11326 1.64469
V   -1.00846 2.229 1.23327
V   1.00846 -2.229 -1.23327
V   2.64255 0.201236 -2.24449
V   -2.64255 -0.201236 2.24449
V   1.50336 0.345154 0.622366
V   -1.50336 -0.345154 -0.622366
V   0.233441 0.355541 3.43479
V   -0.233441 -0.355541 -3.43479
O   -0.0466881 3.63099 -1.72987
O   0.0466881 -3.63099 1.72987
O   1.94222 2.08146 -2.17617
O   -1.94222 -2.08146 2.17617
O   -0.373505 1.22852 -3.11955
O   0.373505 -1.22852 3.11955
O   1.00846 1.92781 0.213834
O   -1.00846 -1.92781 -0.213834
O   -1.42866 1.60464 -0.629614
O   1.42866 -1.60464 0.629614
O   0.429531 0.00940143 -1.16743
O   -0.429531 -0.00940143 1.16743
O   -1.26992 3.78664 1.02984
O   1.26992 -3.78664 -1.02984
O   8.88178e-16 2.02962 2.88044
O   8.88178e-16 -2.02962 -2.88044
O   -2.52116 1.54255 1.88657
O   2.52116 -1.54255 -1.88657
O   4.10855 0.381387 -2.83617
O   -4.10855 -0.381387 2.83617
O   1.49402 -0.191304 -3.82681
O   -1.49402 0.191304 3.82681
O   2.87599 0.615323 -0.251656
O   -2.87599 -0.615323 0.251656
O   1.97024 0.529315 2.2178
O   -1.97024 -0.529315 -2.2178
O   0.924424 0.700307 4.85559
O   -0.924424 -0.700307 -4.85559
