46

W   -2.77049 1.43898 -1.15124
W   -0.881534 -0.366053 -3.30493
W   -2.66679 -1.91909 -0.950277
W   2.07164 1.63627 -2.3067
W   0.20342 3.47705 -0.155368
W   3.0148 1.82773 0.957081
W   -1.69836 -1.65517 2.62883
W   1.06927 0.0904365 3.52012
W   -1.79528 1.68863 2.47105
W   2.30469 -2.11387 -2.05429
W   0.509635 -3.63975 0.278926
O   -4.09755 2.53941 -1.44595
O   -0.895864 -0.368547 -5.06805
O   -3.96933 -3.02159 -1.21559
O   2.9092 2.1986 -3.78375
O   -0.183121 5.12179 -0.262686
O   4.37994 2.77493 1.57337
O   -2.71732 -2.7168 3.50835
O   1.69113 0.274279 5.13697
O   -2.87948 2.80679 3.20192
O   2.89035 -2.64199 -3.60203
O   -0.0963851 -5.22576 0.3308
O   -0.533836 1.44771 3.76541
O   1.99282 -3.7891 1.13381
O   -2.52122 -0.0540607 3.02279
O   -2.23462 -1.60986 -2.80643
O   -0.341508 -1.20533 3.93541
O   2.06447 -1.13329 2.82559
O   -3.67896 -0.268798 -1.08776
O   -2.25347 0.991916 -2.90442
O   -0.669597 2.90238 1.4762
O   3.35043 2.09054 -0.948805
O   3.57669 0.203624 0.846248
O   0.461742 1.06534 -3.04382
O   1.1066 3.28337 -1.82614
O   -1.18247 -2.92877 -0.741518
O   1.81935 3.5743 0.672139
O   -2.66829 -1.67775 0.960274
O   0.446657 -1.49211 -2.97175
O   -0.511209 -2.92184 1.81511
O   3.6936 -2.34136 -1.01149
O   -2.72109 1.41031 0.716775
O   1.97019 1.53222 2.53435
O   1.3555 -3.69628 -1.48371
O   -1.32954 2.60175 -0.973413
O   2.41519 -0.191215 -2.21137
