13

Cr  -0.938643 0.872449 -1.88668
Cr  0.0738919 -1.58262 -0.294973
Cr  1.01451 0.524995 1.95316
O   -1.26284 -1.75178 0.541583
O   -0.282835 -0.841042 -1.74466
O   1.19544 -0.668816 0.616059
O   -1.42436 1.19516 -3.34676
O   -2.15494 0.919494 -0.837089
O   2.26848 0.262985 2.92655
O   0.242267 1.86909 -1.44848
O   -0.39128 0.16931 2.67368
O   0.69317 -3.01285 -0.599805
O   0.967137 2.04362 1.44742
