57

W   -2.6141 1.0126 -2.13962
W   2.6141 -1.0126 2.13962
Si  1.77636e-15 -3.55271e-15 -3.55271e-15
O   -3.86692 1.47549 -3.15829
O   3.86692 -1.47549 3.15829
W   -1.131 3.34075 0.0514483
W   1.131 -3.34075 -0.0514483
O   -2.45023 2.50779 -0.989067
O   2.45023 -2.50779 0.989067
W   0.666691 2.1308 -2.73348
W   -0.666691 -2.1308 2.73348
O   -1.11999 1.60681 -3.1331
O   1.11999 -1.60681 3.1331
W   1.72715 -1.24678 -2.82105
W   -1.72715 1.24678 2.82105
O   -0.563926 1.11984 -0.949168
O   0.563926 -1.11984 0.949168
W   3.30339 1.04415 -0.653918
W   -3.30339 -1.04415 0.653918
O   -1.66231 4.91892 0.0524982
O   1.66231 -4.91892 -0.0524983
W   1.54205 2.3462 2.1203
W   -1.54205 -2.3462 -2.1203
O   0.0353682 3.32853 -1.45735
O   -0.0353682 -3.32853 1.45735
O   0.479436 3.47626 1.06466
O   -0.479436 -3.47626 -1.06466
O   -0.231858 1.36059 0.993267
O   0.231858 -1.36059 -0.993267
O   0.994239 3.14614 -4.02137
O   -0.994239 -3.14614 4.02137
O   1.16519 0.445019 -3.47748
O   -1.16519 -0.445019 3.47748
O   2.31662 2.14302 -1.83954
O   -2.31662 -2.14302 1.83954
O   1.05122 0.441372 -1.10876
O   -1.05122 -0.441372 1.10876
O   2.55633 -1.8275 -4.13896
O   -2.55633 1.8275 4.13896
O   0.0078596 -1.92781 -3.15409
O   -0.0078596 1.92781 3.15409
O   1.9983 -2.62087 -1.56655
O   -1.9983 2.62087 1.56655
O   3.12616 -0.348355 -1.89834
O   -3.12616 0.348355 1.89834
O   4.87492 1.52839 -0.942869
O   -4.87492 -1.52839 0.942869
O   3.58987 -0.227981 0.707676
O   -3.58987 0.227981 -0.707676
O   2.7764 2.27616 0.713976
O   -2.7764 -2.27616 -0.713976
O   1.40687 0.383008 0.642579
O   -1.40687 -0.383009 -0.642579
O   2.27732 3.4562 3.1373
O   -2.27732 -3.4562 -3.1373
O   2.2616 0.731364 2.77191
O   -2.2616 -0.731364 -2.77191
