54

W   -0.331803 2.82201 0.0334757
W   0.331803 -2.82201 -0.0334757
W   2.51721 2.09982 -1.54793
W   -2.51721 -2.09982 1.54793
W   2.76475 1.95597 2.13582
W   -2.76475 -1.95597 -2.13582
W   0.0174023 2.71981 3.76726
W   -0.0174023 -2.71981 -3.76726
W   -2.76612 1.4389 2.56642
W   2.76612 -1.4389 -2.56642
W   0.349733 -0.83829 2.69279
W   -0.349733 0.83829 -2.69279
O   -0.853238 2.52789 -1.8274
O   0.853238 -2.52789 1.8274
O   -0.998785 4.42663 0.206569
O   0.998785 -4.42663 -0.206569
O   0.757262 2.67223 1.58054
O   -0.757262 -2.67223 -1.58054
O   0.756208 0.983075 -0.725768
O   -0.756208 -0.983075 0.725768
O   1.42171 3.47032 -0.870658
O   -1.42171 -3.47032 0.870658
O   3.31065 -1.15741 -4.19278
O   -3.31065 1.15741 4.19278
O   1.43437 1.89218 -3.05274
O   -1.43437 -1.89218 3.05274
O   3.88334 2.97383 -2.15245
O   -3.88334 -2.97383 2.15245
O   3.11764 0.272183 -1.81724
O   -3.11764 -0.272183 1.81724
O   3.11026 1.76846 0.312431
O   -3.11026 -1.76846 -0.312431
O   3.36022 3.57966 2.39042
O   -3.36022 -3.57966 -2.39042
O   4.09006 0.927946 2.71442
O   -4.09006 -0.927946 -2.71442
O   1.73179 1.90292 3.79469
O   -1.73179 -1.90292 -3.79469
O   1.63476 0.0857293 1.83397
O   -1.63476 -0.0857293 -1.83397
O   0.486209 4.39862 3.84442
O   -0.486209 -4.39862 -3.84442
O   -0.418709 2.33875 5.41209
O   0.418709 -2.33875 -5.41209
O   -1.68011 3.02837 2.99154
O   1.68011 -3.02837 -2.99154
O   -0.73195 0.70435 3.04621
O   0.73195 -0.70435 -3.04621
O   -4.10061 2.30615 1.8739
O   4.10061 -2.30615 -1.8739
O   -1.64425 1.73872 0.662048
O   1.64425 -1.73872 -0.662048
O   1.0473 -1.19984 4.24534
O   -1.0473 1.19984 -4.24534
