78

W   0.71444 -3.45405 -1.85109
W   -3.34852 1.1083 -1.85109
W   2.63408 2.34575 -1.85109
W   -2.54631 -2.44857 -1.87867
W   -0.847365 3.42945 -1.87867
W   3.39367 -0.980887 -1.87867
W   0.833939 -3.45155 1.86442
W   -3.4061 1.00356 1.86442
W   2.57216 2.44799 1.86442
W   3.35556 -1.1451 1.82729
W   -2.66947 -2.33345 1.82729
W   -0.686091 3.47855 1.82729
W   1.29978 -1.40436 4.88991
W   -1.8661 -0.423469 4.88991
W   0.566315 1.82782 4.88991
W   1.27549 -1.41012 -4.88175
W   -1.85894 -0.399542 -4.88175
W   0.583458 1.80966 -4.88175
O   2.58082 -0.978196 3.61203
O   -2.13755 -1.74596 3.61203
O   -0.443266 2.72415 3.61203
O   0.00110955 -5.32911e-15 3.73894
O   -0.000554776 -0.0009609 3.73894
O   -0.000554776 0.0009609 3.73894
O   0.763372 -2.69244 3.65903
O   -2.71341 0.685122 3.65903
O   1.95004 2.00732 3.65903
O   2.64406 -2.94035 1.78671
O   -3.86845 -0.819648 1.78671
O   1.22439 3.76 1.78671
O   -1.04742 -3.22094 1.80551
O   -2.2657 2.51756 1.80551
O   3.31312 0.703379 1.80551
O   0.994713 -5.09373 2.30532
O   -4.90866 1.68542 2.30532
O   3.91394 3.40831 2.30532
O   4.94416 -1.46826 2.35075
O   -3.74363 -3.54764 2.35075
O   -1.20053 5.0159 2.35075
O   -2.81993 -2.66073 -0.0229476
O   -0.894299 3.77249 -0.0229476
O   3.71422 -1.11176 -0.0229476
O   -3.82019 -3.42273 -2.35278
O   -1.05407 5.01974 -2.35278
O   4.87426 -1.59702 -2.35278
O   -1.16725 -3.77057 -1.93288
O   -2.68179 2.89615 -1.93288
O   3.84904 0.874419 -1.93288
O   0.768365 -3.78691 0.00838841
O   -3.66374 1.22803 0.00838841
O   2.89538 2.55888 0.00838841
O   2.32118 -2.5214 -1.66652
O   -3.34419 -0.749502 -1.66652
O   1.02301 3.2709 -1.66652
O   0.703456 -2.70397 -3.62032
O   -2.69344 0.742776 -3.62032
O   1.98998 1.9612 -3.62032
O   1.21773 -4.98995 -2.35278
O   -4.93029 1.44039 -2.35278
O   3.71256 3.54956 -2.35278
O   0.00110955 -5.32911e-15 -3.71903
O   -0.000554776 -0.0009609 -3.71903
O   -0.000554776 0.0009609 -3.71903
O   -2.05933 -1.80265 -3.60622
O   -0.531475 2.68475 -3.60622
O   2.5908 -0.882106 -3.60622
O   2.18471 -2.34844 -6.00656
O   -3.12616 -0.717792 -6.00656
O   0.941455 3.06623 -6.00656
O   -0.418301 -1.45288 -5.6838
O   -1.04908 1.0887 -5.6838
O   1.46738 0.364181 -5.6838
O   2.15808 -2.32538 6.04527
O   -3.09288 -0.706262 6.04527
O   0.934797 3.03164 6.04527
O   -0.491531 -1.47979 5.68177
O   -1.03577 1.16557 5.68177
O   1.5273 0.314214 5.68177
