12

Sr  -1.42045 -1.47025 -1.56715
Sr  -1.42045 4.41075 -1.56715
Sr  -1.42045 -4.41075 0.517723
Sr  -1.42045 1.47025 0.517723
Cr  1.57181 -4.41075 0.248674
Cr  1.57181 1.47025 0.248674
O   0.500649 -4.41075 1.96169
O   0.500649 1.47025 1.96169
O   0.384219 0.011762 -0.580467
O   0.384219 5.89276 -0.580467
O   0.384219 -2.95226 -0.580467
O   0.384219 2.92874 -0.580467
