10

Ba  2.66043 -2.22045e-16 3.34204
V   -0.473207 -2.22045e-16 -2.15627
V   -0.221853 -2.22045e-16 1.37277
O   -1.74502 -2.22045e-16 1.84236
O   0.0912097 -2.22045e-16 -0.396632
O   -2.0611 -2.22045e-16 -2.29752
O   0.256772 -1.36737 -2.82346
O   0.256772 1.36737 -2.82346
O   0.617998 1.36186 1.97009
O   0.617998 -1.36186 1.97009
