46

V   -0.367754 0.178289 1.11347
V   -0.367754 10.1248 -3.35459
V   -0.794147 -6.84244 4.49396
V   -0.794147 3.1041 0.0258906
V   -0.590472 -9.15693 2.49908
V   -0.590472 0.789607 -1.96899
V   -0.653396 -7.42282 7.56009
V   -0.653396 2.52371 3.09202
V   -0.289926 -2.13635 -0.910963
V   -0.289926 7.81019 -5.37903
Rb  -0.358646 -5.57701 0.463409
Rb  -0.358646 4.36953 -4.00466
O   -1.65853 -0.8368 2.15235
O   -1.65853 9.10974 -2.31572
O   0.584388 -1.14006 0.658985
O   0.584388 8.80648 -3.80908
O   0.199392 -8.54984 4.22106
O   0.199392 1.3967 -0.247006
O   0.413831 -9.02785 6.8928
O   0.413831 0.918692 2.42474
O   -1.71483 -0.36553 -0.435259
O   -1.71483 9.58101 -4.90332
O   -0.0109073 -5.91147 3.44212
O   -0.0109073 4.03507 -1.02595
O   0.0694038 -6.54873 6.08015
O   0.0694038 3.39781 1.61209
O   -1.33728 -2.86963 0.400484
O   -1.33728 7.07691 -4.06758
O   -1.72393 -8.74725 8.39326
O   -1.72393 1.19929 3.9252
O   0.237477 -8.23089 1.47128
O   0.237477 1.71564 -2.99679
O   0.451916 -0.694972 -1.91044
O   0.451916 9.25157 -6.37851
O   -1.52605 -2.43469 -2.22821
O   -1.52605 7.51185 -6.69628
O   0.270595 -6.92105 8.77151
O   0.270595 3.02548 4.30345
O   0.808763 -3.2925 -1.166
O   0.808763 6.65404 -5.63407
O   2.48122 -5.9582 0.0521294
O   2.48122 3.98834 -4.41594
H   2.92003 -5.29336 -0.0818347
H   2.92003 4.65318 -4.5499
H   2.58885 -6.60511 -0.550667
H   2.58885 3.34143 -5.01873
