53

K   5.52331 3.55271e-15 1.38301
K   5.47345 3.55271e-15 -2.99373
K   0.509029 4.54837 5.39883
K   0.509029 -4.54837 5.39883
K   3.43309 -2.49691 -0.660945
K   3.43309 2.49691 -0.660945
K   2.69397 -2.87303 2.68347
K   2.69397 2.87303 2.68347
Nb  -0.556397 3.55271e-15 -2.02283
Nb  -0.541939 3.55271e-15 1.17771
Nb  -2.82622 1.59671 -0.417036
Nb  -2.82622 -1.59671 -0.417036
Te  -3.30821 3.55271e-15 1.8844
Te  -3.29961 3.55271e-15 -2.72485
Te  -0.0736648 2.31814 -0.420374
Te  -0.0736648 -2.31814 -0.420374
O   -1.72203 3.55271e-15 -0.417219
C   1.71056 3.55271e-15 -2.21737
N   2.85601 3.55271e-15 -2.31595
C   -0.453195 1.51809 -3.71754
C   -0.453195 -1.51809 -3.71754
N   -0.41331 2.18876 -4.59329
N   -0.41331 -2.18876 -4.59329
C   -0.39586 1.4705 2.85703
C   -0.39586 -1.4705 2.85703
N   -0.268727 2.1865 3.77222
N   -0.268727 -2.1865 3.77222
C   1.73923 3.55271e-15 1.29836
N   2.85725 3.55271e-15 1.34414
C   -3.04073 3.28994 1.08787
C   -3.04073 -3.28994 1.08787
N   -3.1554 4.1011 1.85798
N   -3.1554 -4.1011 1.85798
C   -2.98838 3.27182 -1.93404
C   -2.98838 -3.27182 -1.93404
N   -3.11925 4.11696 -2.69247
N   -3.11925 -4.11696 -2.69247
C   -5.10602 1.76959 -0.459081
C   -5.10602 -1.76959 -0.459081
N   -6.24399 1.84663 -0.460248
N   -6.24399 -1.84663 -0.460248
C   2.12063 -5.80725 -0.448417
C   2.12063 5.80725 -0.448417
O   1.18957 -6.42128 -1.05255
O   1.18957 6.42128 -1.05255
O   3.00308 -5.15243 -1.12228
O   3.00308 5.15243 -1.12228
O   2.15802 -5.71888 0.802139
O   2.15802 5.71888 0.802139
O   3.59388 -3.33526 1.87369
O   3.59388 3.33526 1.87369
O   4.01765 -3.16532 0.4472
O   4.01765 3.16532 0.4472
