14

Cr  -1.0511 0.592564 -1.85794
Cr  -0.0385673 -1.8625 -0.266233
Cr  0.902051 0.24511 1.9819
K   1.46197 3.63851 -0.373617
O   -1.3753 -2.03167 0.570323
O   -0.395295 -1.12093 -1.71592
O   1.08298 -0.948701 0.644799
O   -1.53682 0.915277 -3.31802
O   -2.2674 0.639608 -0.808349
O   2.15602 -0.0169006 2.95529
O   0.129808 1.58921 -1.41975
O   -0.50374 -0.110575 2.70241
O   0.580711 -3.29274 -0.571065
O   0.854678 1.76374 1.47616
