58

V   -1.50499 -2.82991 0.60831
V   -1.50499 2.82991 0.60831
V   0.0492138 -1.82752 2.94004
V   0.0492138 1.82752 2.94004
V   2.05692 -2.64421 0.998719
V   2.05692 2.64421 0.998719
V   0.827476 -2.67375 -2.06198
V   0.827476 2.67375 -2.06198
V   -2.02113 -1.80853 -2.1494
V   -2.02113 1.80853 -2.1494
V   -3.41295 2.66454e-15 -0.473584
V   -2.30297 2.66454e-15 2.62842
V   2.95233 2.66454e-15 1.76696
V   2.98829 2.66454e-15 -1.21288
V   0.919105 2.66454e-15 -3.34889
O   -2.24266 -4.24592 0.914642
O   -2.24266 4.24592 0.914642
O   0.16288 -2.58934 4.36353
O   0.16288 2.58934 4.36353
O   3.02772 -3.76055 1.65219
O   3.02772 3.76055 1.65219
O   1.02233 -3.75844 -3.21316
O   1.02233 3.75844 -3.21316
O   -2.91422 -2.58301 -3.24111
O   -2.91422 2.58301 -3.24111
O   -4.92424 2.66454e-15 -0.944875
O   -3.17286 2.66454e-15 3.99514
O   4.27109 2.66454e-15 2.60531
O   4.48218 2.66454e-15 -1.81892
O   1.22647 2.66454e-15 -4.89821
O   0.251029 -3.09159 1.51695
O   0.251029 3.09159 1.51695
O   -0.865912 -3.10214 -1.25162
O   -0.865912 3.10214 -1.25162
O   -2.89218 -1.86973 -0.443239
O   -2.89218 1.86973 -0.443239
O   -1.79727 -1.8444 2.33507
O   -1.79727 1.8444 2.33507
O   1.83655 -1.32527 2.42477
O   1.83655 1.32527 2.42477
O   1.77972 -3.32161 -0.72347
O   1.77972 3.32161 -0.72347
O   -0.356735 -1.39913 -2.97334
O   -0.356735 1.39913 -2.97334
O   -2.50363 2.66454e-15 -2.21616
O   -3.56489 2.66454e-15 1.39257
O   -0.449524 2.66454e-15 3.27039
O   3.21678 -1.23242 0.328261
O   3.21678 1.23242 0.328261
O   2.07432 -1.28095 -2.43198
O   2.07432 1.28095 -2.43198
C   -0.00993876 2.66454e-15 0.00455508
O   -1.1002 -0.559229 0.346479
O   -1.1002 0.55923 0.346479
O   0.121125 -1.27673 0.0203537
O   0.121125 1.27673 0.0203537
O   1.02001 -0.664744 -0.33495
O   1.02001 0.664745 -0.33495
