47

W   -1.27041 3.62134 -1.02432
W   -0.77074 2.68605 2.54597
W   0.843192 -3.23146 0.843064
W   2.54582 1.57598 1.85594
W   -2.73694 -2.06053 1.63661
W   -3.18789 -1.21351 -1.65091
W   3.15416 -1.04923 -0.764646
W   0.254831 -0.604776 3.43572
W   0.394739 -2.37232 -2.45007
W   -3.75002 1.24043 0.72766
W   -0.727019 1.18154 -3.41123
W   2.04615 2.499 -1.73485
O   -1.12051 4.0264 3.48034
O   2.33845 -1.98307 -2.2558
O   3.38276 3.35991 -2.4509
O   0.478434 -3.52896 -3.73575
O   0.352267 -1.35394 4.98266
O   -0.495922 1.19362 3.84049
O   -2.23602 0.310993 -2.66919
O   -1.54648 -1.22111 2.86511
O   1.23044 -4.85229 1.5179
O   2.36219 2.55891 0.154498
O   -4.3059 -1.90477 -2.74801
O   3.00926 0.0273922 0.878156
O   2.63201 -2.63343 0.294565
O   -2.45338 1.8789 1.99117
O   -3.92615 -0.464336 1.77498
O   3.97862 2.20113 2.43367
O   1.20795 2.79089 2.60486
O   3.45771 -3.22993 0.56233
O   0.890661 -1.41568 -3.67468
O   2.76567 0.645981 -1.62269
O   0.890661 -2.0333 2.25792
O   -1.39783 2.87539 -2.76491
O   0.610846 3.91772 -1.46785
O   -1.14424 -3.05966 1.09804
O   1.99743 0.279057 3.19345
O   -1.12426 1.336 -5.0608
O   -0.730767 3.52884 0.810512
O   -3.69131 -3.17994 2.59789
O   0.489676 -3.6585 -0.965342
O   -3.48644 -2.33796 -0.0686336
O   0.138658 -0.594075 -3.24251
O   -1.48527 -2.26998 -1.97888
O   -1.91873 5.23061 -1.19067
O   4.88177 -1.2279 -1.08207
O   -2.82813 2.51458 -0.368818
