42

O   -3.1509 -0.336424 -2.91548
O   2.23818 -1.24783 0.592052
O   -1.28886 -0.191973 -1.25005
O   3.54565 1.08949 0.441544
O   -3.86074 0.43166 -0.403548
O   -1.04094 -0.996271 4.02896
O   1.40568 -0.95405 -1.85151
O   -0.746039 -2.9904 2.19327
O   -2.99171 0.0835701 2.48899
O   3.52608 3.24609 2.1658
O   -0.0361944 3.69034 -1.11604
O   1.42656 -1.55496 3.13409
O   0.177803 -2.57703 -0.306861
O   -0.601199 -0.852734 -3.60741
O   0.119084 1.67587 -2.87184
O   -2.43714 2.17366 -2.21692
O   1.80496 -3.83012 1.61765
O   -1.96739 -2.53665 -1.90706
O   -2.66288 -1.80668 0.654452
O   -0.336312 -0.558707 1.68086
O   1.87673 3.85863 -3.05297
O   0.424422 -3.32816 -2.98463
O   1.16819 0.278021 5.14598
O   -1.85387 1.26518 -4.79385
O   -4.66323 -2.03563 -1.31471
O   -0.653394 1.57888 3.46485
O   1.13296 1.36482 -0.214686
O   2.72359 1.36012 -2.15288
O   2.54482 3.42039 -0.448358
O   0.81327 3.4595 1.60796
O   1.80888 1.1009 2.51617
O   -3.2318 -2.59074 3.3193
O   4.16676 -0.825167 -1.40019
W   2.26571 2.5043 1.24536
W   1.30442 2.74854 -1.84207
W   2.73859 -0.0532519 -0.8304
W   -1.64235 0.791266 -3.11352
W   -0.191473 -1.97498 -2.1336
W   0.919747 -2.35891 1.42917
W   0.525157 0.14726 3.51568
W   -3.21549 -1.12442 -1.0185
W   -2.08535 -1.54339 2.50492
