38

W   -1.89572 -0.784597 2.23177
W   -0.254561 -2.78138 -0.452799
W   -2.60412 -0.033317 -1.33963
W   1.22598 0.17794 3.5121
W   -0.899227 2.50456 2.11573
W   2.86127 -2.02389 0.879659
W   -1.63474 3.26654 -0.787099
W   2.18252 -1.3274 -2.41685
W   -0.137234 1.43949 -3.27228
O   -3.19583 -1.65103 2.9294
O   -0.985637 -4.30727 -0.601244
O   -4.14555 -0.612937 -1.80624
O   1.7446 -0.62578 5.06933
O   3.88186 -3.22851 1.52904
O   -2.6964 4.6075 -0.933137
O   2.83543 -2.03844 -3.821
O   -0.243621 1.64518 -4.97956
O   -1.53105 -1.62321 -1.32256
O   -1.01735 -2.13476 1.16741
O   -2.65676 -0.246929 0.573309
O   0.780614 -0.261912 -3.17602
O   1.84924 -1.34709 2.39568
O   -1.77997 2.83953 1.0351
O   -0.533768 -1.03888 3.49783
O   -2.19855 0.940993 2.84287
O   1.32761 -3.2178 0.47456
O   -2.91202 1.80143 -1.11052
O   0.753661 -2.64204 -2.02553
O   -1.78315 0.367366 -2.96942
O   0.0718943 1.41402 4.01914
O   3.13667 -2.28459 -1.03884
O   -1.22822 2.88448 -2.6687
O   2.51357 1.08654 3.03841
O   0.582426 3.3575 2.24504
O   3.90881 -0.550866 0.798798
O   0.0068886 3.98464 -0.638159
O   3.24132 0.159747 -2.16626
O   1.42909 2.28516 -2.82933
