36

Nb  0.463794 3.55271e-15 -1.67749
Nb  -0.463794 3.55271e-15 1.67749
Nb  0.452462 -3.2736 -1.62511
Nb  -0.452462 -3.2736 1.62511
Nb  -0.452462 3.2736 1.62511
Nb  0.452462 3.2736 -1.62511
Nb  2.29498 -1.72823 0.652625
Nb  -2.29498 -1.72823 -0.652625
Nb  -2.29498 1.72823 -0.652625
Nb  2.29498 1.72823 0.652625
O   0 -4.24371 3.55271e-15
O   0 4.24371 3.55271e-15
O   1.52629 3.55271e-15 1.7368
O   -1.52629 3.55271e-15 -1.7368
O   1.45395 -2.83529 1.87192
O   -1.45395 -2.83529 -1.87192
O   -1.45395 2.83529 -1.87192
O   1.45395 2.83529 1.87192
O   3.96039 -1.65238 1.13846
O   -3.96039 -1.65238 -1.13846
O   -3.96039 1.65238 -1.13846
O   3.96039 1.65238 1.13846
O   -2.2183 3.55271e-15 0.693676
O   2.2183 3.55271e-15 -0.693676
O   -2.22795 -2.83734 0.853992
O   2.22795 -2.83734 -0.853992
O   2.22795 2.83734 -0.853992
O   -2.22795 2.83734 0.853992
O   -0.742649 -1.48837 2.46017
O   0.742649 -1.48837 -2.46017
O   0.742649 1.48837 -2.46017
O   -0.742649 1.48837 2.46017
O   -0.761939 -4.49587 2.81264
O   0.761939 -4.49587 -2.81264
O   0.761939 4.49587 -2.81264
O   -0.761939 4.49587 2.81264
