78

O   -2.47153 4.37996 4.78483
O   2.67987 5.635 3.0318
O   -1.7275 6.60783 -0.249235
O   -1.27088 -0.110286 5.63189
O   3.89326 1.13232 4.14928
O   4.81924 2.89942 -0.229582
O   0.618154 4.09497 -3.63667
O   -3.86339 3.01688 -2.36178
O   -4.95625 0.977752 2.58964
O   -0.849038 -4.20346 3.9323
O   4.35219 -2.95411 2.4167
O   5.15648 -1.15203 -1.97269
O   0.994803 -0.0601062 -5.3811
O   -3.547 -1.2416 -4.04482
O   -4.49036 -3.20724 1.00656
O   -1.56409 -6.74709 -0.027089
O   3.76694 -5.68368 -1.35386
O   -0.259148 -4.63029 -5.0018
O   0.132567 4.63923 3.7103
O   0.5266 5.70726 1.28238
O   -1.9361 5.14744 2.12594
O   -0.935957 2.15973 4.1293
O   1.98452 2.862 3.26074
O   2.48749 3.85038 0.912637
O   0.107071 4.49698 -0.99725
O   -2.33014 3.89837 -0.29095
O   -2.87483 2.72152 2.51402
O   -2.22236 0.239182 2.97849
O   1.17328 0.555479 4.53584
O   3.11215 1.37517 1.44112
O   2.4759 3.29793 -1.74321
O   -1.1237 2.46054 -2.07999
O   -4.02564 1.85425 0.153793
O   -0.25683 -1.55575 3.59506
O   2.65438 -0.846463 2.76677
O   3.41579 0.77917 -1.14547
O   1.02841 1.44217 -3.10922
O   -2.98145 0.463981 -1.97021
O   -3.54121 -0.659695 0.917612
O   -1.89902 -2.60548 1.83239
O   1.61019 -3.36945 2.89945
O   3.41115 -1.43994 0.239765
O   2.81894 -0.654853 -3.37876
O   -0.913937 -0.43885 -3.31289
O   -3.66637 -2.10384 -1.40984
O   -0.262625 -4.57335 1.28943
O   2.64974 -3.90254 0.48702
O   3.11099 -2.94526 -1.85888
O   0.759543 -2.3359 -3.82378
O   -1.66724 -2.95633 -3.12528
O   -2.24785 -4.07397 -0.283285
O   1.06897 -5.82875 -0.597343
O   1.65307 -4.80008 -2.99168
O   -0.910461 -5.32261 -2.34477
W   -1.53187 3.77665 3.48945
W   1.53463 4.56424 2.34536
W   -3.43876 1.10133 1.79044
W   -0.659207 0.17502 4.0751
W   2.46246 1.04955 3.20729
W   3.18899 2.34632 -0.207346
W   -3.11009 -2.39327 0.402614
W   -0.264015 -3.27145 2.61286
W   2.86484 -2.40793 1.7712
W   3.47721 -1.11364 -1.66708
W   -0.839303 -5.2649 -0.482104
W   2.39385 -4.64686 -1.18429
W   -1.17632 5.10413 0.401149
W   -2.81433 2.15644 -1.33403
W   0.647707 3.19247 -2.19791
W   -2.4808 -1.33182 -2.72847
W   0.932338 -0.270199 -3.68913
W   0.0186452 -3.95449 -3.47518
Mo  -1.17632 5.10413 0.401149
Mo  -2.81433 2.15644 -1.33403
Mo  0.647707 3.19247 -2.19791
Mo  -2.4808 -1.33182 -2.72847
Mo  0.932338 -0.270199 -3.68913
Mo  0.0186452 -3.95449 -3.47518
