28

Nb  1.28567 -1.68157 1.10163
Nb  -1.28567 1.68157 -1.10163
Nb  0.205424 -1.13857 -2.00394
Nb  -0.205424 1.13857 2.00394
Nb  -1.97147 -1.20917 0.490533
Nb  1.97147 1.20917 -0.490533
Rb  -0.310161 -4.69136 -1.35864
Rb  0.310161 4.69136 1.35864
Rb  1.72213 -6.81604 1.61744
Rb  -1.72213 6.81604 -1.61744
O   0.893546 -0.392292 2.56733
O   -0.893546 0.392292 -2.56733
O   1.19915 -2.32985 -0.752278
O   -1.19915 2.32985 0.752278
O   0.388586 -2.07687 -3.54106
O   -0.388586 2.07687 3.54106
O   -3.49626 -2.09333 0.892747
O   3.49626 2.09333 -0.892747
O   -0.580855 -2.34584 1.34339
O   0.580855 2.34584 -1.34339
O   2.68266 -0.382635 0.497617
O   -2.68266 0.382635 -0.497617
O   2.26979 -2.95058 1.90314
O   -2.26979 2.95058 -1.90314
O   -1.45922 -1.95687 -1.2496
O   1.45922 1.95687 1.2496
O   1.79519 0.00680733 -2.06964
O   -1.79519 -0.00680733 2.06964
