10

K   4.58036 -2.25134 -2.22045e-16
Cr  -2.06325 0.0989028 -2.22045e-16
Cr  1.05673 0.239769 -2.22045e-16
O   -0.452731 -0.672895 -2.22045e-16
O   1.08692 1.17171 1.33391
O   1.08692 1.17171 -1.33391
O   -3.20563 -1.01097 -2.22045e-16
O   2.26936 -0.820433 -2.22045e-16
O   -2.17934 1.03677 1.32067
O   -2.17934 1.03677 -1.32067
