11

Fe  -1.17686 1.37486 8.88178e-16
Fe  1.17686 -1.37486 8.88178e-16
O   8.88178e-16 -1.77636e-15 8.88178e-16
O   -2.91944 0.82711 8.88178e-16
O   2.91944 -0.82711 8.88178e-16
O   -1.03184 2.49905 -1.53828
O   1.03184 -2.49905 -1.53828
O   1.03184 -2.49905 1.53828
O   -1.03184 2.49905 1.53828
O   -2.23659 2.82315 8.88178e-16
O   2.23659 -2.82315 8.88178e-16
