36

W   0.133511 0.720014 -1.09161
W   -2.33893 2.44873 0.520584
W   -2.3197 -1.56297 -0.528729
W   0.724936 -1.7496 0.930365
W   0.730706 2.07054 1.85733
W   -2.96498 1.04166 -2.35902
Na  3.17045 2.67687 -0.945337
Na  3.8917 -5.62996 1.91099
Na  2.70885 -2.41954 4.11945
Na  3.38202 -1.08515 -1.68821
O   1.80489 0.812523 -1.6114
O   -2.05139 0.554595 -0.454211
O   -0.147295 -1.18565 -1.05726
O   0.372005 0.217272 0.9124
O   -0.156912 2.34906 -0.160622
O   -0.705062 1.1275 -2.60045
O   -3.97473 2.1363 0.979746
O   -2.20526 4.1578 0.702387
O   -1.37823 1.84367 2.00238
O   -2.68609 2.69809 -1.45657
O   -2.25334 -3.18327 -1.23103
O   -3.92664 -1.38721 0.123914
O   -1.33976 -1.83842 1.05783
O   -2.60916 -0.780216 -2.41275
O   0.564338 -3.49936 0.309373
O   0.929771 -1.95993 2.61979
O   2.3915 -1.6027 0.388121
O   0.602805 3.80776 2.20044
O   0.900921 1.31428 3.43483
O   2.40112 2.06789 1.22132
O   -4.70559 0.904083 -2.01372
O   -3.01306 1.45308 -4.05287
O   3.80515 -3.27319 2.20192
O   4.19944 3.06966 -2.99705
O   1.71834 -5.91664 2.81307
O   4.34369 -0.397557 -3.64541
