57

As  0.198771 2.32779 3.3222
V   0.200474 2.00349 0.0762651
V   -0.0872472 -0.543582 1.79533
O   1.53179 2.6109 4.29865
O   -1.14375 3.09549 3.98864
O   -0.164062 0.674411 3.25743
O   0.502805 2.8942 1.75901
O   0.420343 -1.87713 2.56196
O   1.2118 0.0500381 0.947962
O   -1.10162 1.03412 0.444369
O   -0.387248 3.23714 -0.779143
N   0.685655 0.926024 -1.72768
N   2.37433 2.29964 -0.222924
N   -0.814795 -1.77835 0.210771
N   -2.26416 -0.770034 2.17571
C   -0.195434 0.303515 -2.49955
C   0.180127 -0.417776 -3.63595
C   1.50221 -0.512829 -3.97424
C   2.46307 0.167458 -3.20824
C   2.00326 0.888748 -2.08962
C   2.9184 1.63613 -1.28611
C   3.87479 0.20287 -3.51255
C   4.72988 0.929752 -2.75673
C   4.27634 1.66968 -1.61052
C   5.12068 2.42266 -0.778487
C   4.58647 3.06567 0.310055
C   3.20792 2.98552 0.563668
C   -0.0430583 -2.31699 -0.72261
C   -0.519008 -3.25448 -1.64532
C   -1.85005 -3.60487 -1.63526
C   -2.70067 -3.03082 -0.671595
C   -2.12971 -2.14552 0.246275
C   -4.10969 -3.32903 -0.559035
C   -4.85812 -2.78107 0.427179
C   -2.91399 -1.58265 1.29391
C   -4.29434 -1.8734 1.37993
C   -5.02574 -1.2248 2.40007
C   -4.36604 -0.361862 3.2522
C   -2.98749 -0.186664 3.13037
H   2.23182 2.64631 3.8183
H   -1.45388 2.62395 4.62414
H   -1.09714 0.35011 -2.27778
H   -0.466124 -0.835267 -4.15938
H   1.76304 -1.02165 -4.70613
H   4.20015 -0.277991 -4.23827
H   5.63159 0.950254 -2.98284
H   6.02955 2.48416 -0.96272
H   5.13681 3.55398 0.879071
H   2.86283 3.42724 1.30529
H   0.849683 -2.06165 -0.765737
H   0.0609156 -3.64029 -2.26306
H   -2.18259 -4.21247 -2.25624
H   -4.50766 -3.90495 -1.1715
H   -5.76073 -2.99914 0.486943
H   -5.9382 -1.37763 2.4953
H   -4.83841 0.100361 3.90434
H   -2.55457 0.361293 3.74388
