34

V   1.63188 -2.03061 0.812287
V   -1.63188 2.03061 -0.812287
V   1.15182 1.12123 0.238628
V   -1.15182 -1.12123 -0.238628
V   1.3509 -1.1386 -2.11534
V   -1.3509 1.1386 2.11534
V   1.39203 0.140016 3.13874
V   -1.39203 -0.140016 -3.13874
V   -0.811929 -1.93565 2.69937
V   0.811929 1.93565 -2.69937
O   2.71598 -3.10949 0.35802
O   -2.71598 3.10949 -0.35802
O   1.7722 2.17033 -0.936702
O   -1.7722 -2.17033 0.936702
O   0.54893 -2.9465 1.87508
O   -0.54893 2.9465 -1.87508
O   2.50601 -1.15867 2.24553
O   -2.50601 1.15867 -2.24553
O   1.97285 0.442666 -2.92491
O   -1.97285 -0.442666 2.92491
O   0.38984 -2.11142 -0.71228
O   -0.38984 2.11142 0.71228
O   2.0352 1.35075 1.64661
O   -2.0352 -1.35075 -1.64661
O   0.0222152 -1.35311 -3.28051
O   -0.0222152 1.35311 3.28051
O   0.39199 -1.19779 3.8443
O   -0.39199 1.19779 -3.8443
O   2.43579 -2.21626 -2.54131
O   -2.43579 2.21626 2.54131
O   2.34334 0.580506 4.33231
O   -2.34334 -0.580506 -4.33231
O   -1.54646 -3.05522 3.56223
O   1.54646 3.05522 -3.56223
