160

Fe  -1.16689 -3.10304 -3.694
Fe  0.88577 3.83634 3.22518
Fe  1.68282 0.478454 -0.879178
P   0.617448 -4.52115 -3.86847
P   -2.15573 -4.80543 -2.70135
P   -2.09901 -3.85177 -5.53802
P   -3.0235 -1.75478 -3.58837
P   -0.888099 2.49722 3.7415
P   0.93952 4.24615 5.4031
P   -0.270689 5.70794 3.10068
P   2.61282 5.16663 2.62799
O   -0.388796 -1.95024 -2.20892
O   0.0610011 -1.61601 -4.31714
O   1.05253 -0.288424 -2.76598
O   2.16147 2.27652 2.9641
O   0.809248 2.94683 1.38489
O   2.23361 1.2194 0.978876
O   0.300044 2.06821 -0.973421
O   0.196789 -0.755246 0.0084552
O   3.21099 -0.964798 -0.656428
O   3.12047 1.67467 -1.91603
C   -3.31248 -2.64139 -6.16782
H   -2.84853 -1.86139 -6.56475
H   -3.88392 -3.05501 -6.86254
C   0.247709 -1.25857 -3.10543
C   -4.15125 -2.20792 -4.97904
H   -4.74815 -2.9477 -4.70126
H   -4.71137 -1.43062 -5.22704
C   -4.56993 -4.90902 0.624211
H   -5.48932 -5.03408 0.828553
C   1.73996 -4.43713 -5.26685
C   2.5462 -3.2906 -5.42317
H   2.45143 -2.56828 -4.81097
C   3.45287 -3.20106 -6.42615
H   4.01016 -2.43291 -6.46364
C   3.6028 -4.18454 -7.40442
H   4.22657 -4.08874 -8.11363
C   2.79373 -5.31028 -7.28835
H   2.85597 -5.99548 -7.94146
C   1.89414 -5.45181 -6.23053
H   1.37645 -6.24527 -6.16113
C   1.84463 -4.67794 -2.52991
C   2.98044 -5.44638 -2.70243
H   3.1431 -5.8431 -3.55181
C   3.91115 -5.66264 -1.65415
H   4.66506 -6.22408 -1.7832
C   3.70464 -5.05299 -0.467909
H   4.32559 -5.18849 0.238429
C   2.61409 -4.24061 -0.255156
H   2.47972 -3.81338 0.583182
C   1.68904 -4.05834 -1.33171
H   0.943622 -3.48487 -1.20219
C   -2.76933 -4.78975 -0.996276
C   -1.86407 -4.57136 0.0223457
H   -0.943263 -4.44606 -0.175564
C   -2.31104 -4.53459 1.36458
H   -1.69434 -4.41111 2.07467
C   -3.62224 -4.676 1.61404
H   -3.91786 -4.61263 2.51203
C   -4.10316 -4.95161 -0.672064
H   -4.72552 -5.09881 -1.3746
C   -1.24313 -4.25128 -7.05075
C   -0.298271 -3.33993 -7.56128
H   -0.111563 -2.54513 -7.07581
C   0.359451 -3.57258 -8.74551
H   0.998785 -2.94574 -9.06174
C   0.094948 -4.70677 -9.4711
H   0.539087 -4.86094 -10.2969
C   -0.825863 -5.62628 -8.99041
H   -0.999841 -6.41897 -9.48516
C   -1.49631 -5.40484 -7.79825
H   -2.12999 -6.03987 -7.48816
C   -4.04375 -1.78919 -2.11368
C   -5.44406 -1.98486 -2.13178
H   -5.88254 -2.1274 -2.96368
C   -6.19089 -1.97502 -0.959095
H   -7.13009 -2.12158 -0.984886
C   -5.54732 -1.74989 0.241714
H   -6.04945 -1.74504 1.04884
C   -4.19368 -1.53311 0.283851
H   -3.77076 -1.35974 1.11709
C   -3.43695 -1.56257 -0.877481
H   -2.49775 -1.42967 -0.829281
C   -1.53309 2.98681 5.37936
H   -2.04795 3.82932 5.31212
H   -2.12292 2.28161 5.74613
C   0.776716 7.10994 2.50047
H   0.751256 7.15127 1.5121
H   0.42876 7.96645 2.85743
C   2.19117 6.90249 2.96578
H   2.26614 7.09107 3.93416
H   2.80646 7.50712 2.4795
C   1.74279 2.13879 1.75229
C   -2.3068 2.51232 2.59447
C   -3.47797 3.20656 2.87089
H   -3.56708 3.66407 3.69859
C   -4.51194 3.24019 1.96064
H   -5.30969 3.71994 2.15104
C   -4.36625 2.55668 0.757073
H   -5.07772 2.56631 0.129539
C   -3.22478 1.87422 0.461012
H   -3.13567 1.43493 -0.376216
C   -2.1795 1.82425 1.39561
H   -1.39447 1.32264 1.21157
C   -0.634911 0.708996 4.00092
C   -1.74667 -0.167758 3.92345
H   -2.59393 0.156488 3.6441
C   -1.58118 -1.5116 4.26303
H   -2.31953 -2.10323 4.17326
C   -0.376066 -2.01191 4.72751
H   -0.289784 -2.92395 4.98015
C   0.697506 -1.14149 4.8145
H   1.54052 -1.46492 5.10836
C   0.556061 0.206342 4.4713
H   1.30006 0.789796 4.56714
C   2.39768 4.01497 6.46898
C   3.26474 3.02431 6.16862
H   3.13603 2.52158 5.37486
C   4.3369 2.71912 6.99477
H   4.9437 2.02548 6.76401
C   4.50522 3.45164 8.16033
H   5.20679 3.23688 8.76166
C   3.66079 4.4749 8.43047
H   3.80224 5.00707 9.20676
C   2.61127 4.75347 7.60811
H   2.02002 5.46487 7.82332
C   -1.75233 5.91322 2.06552
C   -2.83722 6.71439 2.39075
H   -2.86126 7.1842 3.21841
C   -3.88109 6.81775 1.49486
H   -4.62226 7.37066 1.71076
C   -3.87543 6.1581 0.317875
H   -4.61378 6.24832 -0.272773
C   -2.816 5.35422 -0.0313183
H   -2.80893 4.89375 -0.864147
C   -1.76223 5.23277 0.848682
H   -1.02813 4.67261 0.624146
C   4.19121 4.87261 3.43244
C   4.66081 5.63989 4.48811
H   4.1898 6.43348 4.71579
C   5.76409 5.30797 5.2068
H   6.02152 5.81532 5.9667
C   6.48546 4.23697 4.81268
H   7.26624 4.00041 5.29888
C   6.10921 3.45632 3.69794
H   6.64529 2.72362 3.41632
C   4.93097 3.78341 3.01194
H   4.64525 3.26529 2.26906
C   -0.4185 2.64157 -2.02606
H   -1.2304 3.06432 -1.67601
H   -0.6632 1.94651 -2.67058
H   0.135967 3.31813 -2.46846
C   0.335406 -1.48852 1.21726
H   -0.496295 -1.97262 1.40196
H   0.524943 -0.870933 1.955
H   1.07234 -2.12718 1.12827
C   4.12615 -1.38105 -1.71396
H   4.74851 -2.05237 -1.36423
H   4.62969 -0.605116 -2.03617
H   3.61411 -1.76661 -2.45642
