54

Fe  4.26049 0.220396 1.71581
Fe  -4.26049 0.220396 -1.71581
P   2.55914 -1.0148 2.32559
P   -2.55914 -1.0148 -2.32559
O   4.11148 -0.61736 -1.03242
O   -4.11148 -0.61736 1.03242
O   2.22468 2.12242 2.04631
O   -2.22468 2.12242 -2.04631
C   4.16273 -0.280093 0.0515972
C   -4.16273 -0.280093 -0.0515972
C   3.16049 1.76225 1.38395
C   -3.16049 1.76225 -1.38395
C   3.58378 2.70535 0.270611
C   -3.58378 2.70535 -0.270611
H   3.42244 2.28064 -0.598423
H   -3.42244 2.28064 0.598423
H   4.53667 2.91146 0.361841
H   -4.53667 2.91146 -0.361841
H   3.06368 3.53395 0.328826
H   -3.06368 3.53395 -0.328826
C   2.29871 -1.03374 4.13679
C   -2.29871 -1.03374 -4.13679
C   1.6742 0.059257 4.7236
C   -1.6742 0.059257 -4.7236
H   1.28697 0.735875 4.18332
H   -1.28697 0.735875 -4.18332
C   1.62105 0.152943 6.09912
C   -1.62105 0.152943 -6.09912
H   1.19017 0.896181 6.5005
H   -1.19017 0.896181 -6.5005
C   2.18102 -0.817223 6.89231
C   -2.18102 -0.817223 -6.89231
H   2.15824 -0.731865 7.8397
H   -2.15824 -0.731865 -7.8397
C   2.76756 -1.89773 6.3191
C   -2.76756 -1.89773 -6.3191
H   3.1434 -2.57851 6.86389
H   -3.1434 -2.57851 -6.86389
C   2.82071 -2.01015 4.94569
C   -2.82071 -2.01015 -4.94569
H   3.22502 -2.77629 4.55341
H   -3.22502 -2.77629 -4.55341
C   0.888353 -0.615279 1.70793
C   -0.888353 -0.615279 -1.70793
H   0.242968 -1.24401 2.11728
H   -0.242968 -1.24401 -2.11728
H   0.651079 0.296594 2.01395
H   -0.651079 0.296594 -2.01395
C   0.730803 -0.673572 0.208319
C   -0.730803 -0.673572 -0.208319
H   1.16739 -1.49384 -0.132476
H   -1.16739 -1.49384 0.132476
H   1.18447 0.107141 -0.197876
H   -1.18447 0.107141 0.197876
