50

Mn  -1.10795 -1.60055 -3.21882
Mn  1.10795 1.60055 3.21882
P   -0.118524 -1.9991 -1.27669
P   0.118524 1.9991 1.27669
O   1.32405 -1.34553 -4.86521
O   -1.32405 1.34553 4.86521
O   -0.781687 1.32717 -3.037
O   0.781687 -1.32717 3.037
C   -1.49112 -3.75826 -3.48344
C   1.49112 3.75826 3.48344
H   -0.698153 -4.3455 -3.57136
H   0.698153 4.3455 3.57136
H   -2.22191 -4.151 -2.94274
H   2.22191 4.151 2.94274
C   -1.86967 -3.02705 -4.62657
C   1.86967 3.02705 4.62657
C   -2.72978 -1.89792 -4.57848
C   2.72978 1.89792 4.57848
H   -2.71143 -1.3174 -5.39184
H   2.71143 1.3174 5.39184
C   -3.22636 -1.26929 -3.40028
C   3.22636 1.26929 3.40028
C   -3.00319 -1.75537 -2.10342
C   3.00319 1.75537 2.10342
H   -3.33165 -2.66875 -1.90742
H   3.33165 2.66875 1.90742
H   -3.13519 -1.11628 -1.35893
H   3.13519 1.11628 1.35893
C   -1.23232 -3.34061 -5.96017
C   1.23232 3.34061 5.96017
H   -1.77704 -4.00222 -6.43452
H   1.77704 4.00222 6.43452
H   -0.33284 -3.70119 -5.81592
H   0.33284 3.70119 5.81592
H   -1.17468 -2.52131 -6.49476
H   1.17468 2.52131 6.49476
C   -3.87881 0.084921 -3.57611
C   3.87881 -0.084921 3.57611
H   -4.84891 -0.0275407 -3.65943
H   4.84891 0.0275407 3.65943
H   -3.52892 0.514404 -4.38544
H   3.52892 -0.514404 4.38544
H   -3.68154 0.646935 -2.79748
H   3.68154 -0.646935 2.79748
C   0.380087 -1.49382 -4.21365
C   -0.380087 1.49382 4.21365
C   -0.930329 0.183541 -3.09217
C   0.930329 -0.183541 3.09217
C   -0.00941694 -0.531168 -0.281657
C   0.00941694 0.531168 0.281657
