14

Mn  -3.73444 0.491596 -0.652365
Mn  3.73444 -0.491596 0.652365
P   -2.10023 -0.995226 -0.514813
P   2.10023 0.995226 0.514813
O   -3.45736 0.667524 2.26351
O   3.45736 -0.667524 -2.26351
O   -5.89791 -1.48396 -0.888866
O   5.89791 1.48396 0.888866
C   -3.60052 0.60865 1.13587
C   3.60052 -0.60865 -1.13587
C   -5.03667 -0.732458 -0.770856
C   5.03667 0.732458 0.770856
C   -0.509529 -0.291771 -0.124726
C   0.509529 0.291771 0.124726
