62

Pd  1.48381 -0.0309213 -1.23505
Pd  -1.80883 -0.0609856 1.20001
Se  3.02545 -0.617722 1.57025
Se  -3.33283 -0.391538 -1.6607
O   1.50648 -0.213255 -3.33935
O   2.78818 1.57815 -3.65143
O   -2.14395 -0.0987608 3.28389
O   -0.209019 -1.13933 3.57032
N   2.84991 -1.535 -1.04482
N   -0.439363 1.42237 1.54035
N   -3.18753 -1.51553 0.882828
N   0.183005 1.54465 -1.39768
C   3.48992 -1.72504 0.131654
C   4.48898 -2.67838 0.277771
H   4.91956 -2.79873 1.11603
C   4.84699 -3.44557 -0.804824
H   5.54898 -4.08196 -0.732704
C   4.17129 -3.27967 -2.00202
H   4.38697 -3.82047 -2.75269
C   3.18734 -2.32711 -2.0953
H   2.72806 -2.21892 -2.91992
C   0.896713 1.25414 1.34146
C   1.78134 2.32275 1.58331
H   2.71391 2.2124 1.43911
C   1.28811 3.52844 2.03018
H   1.87745 4.25506 2.19415
C   -0.0786244 3.67409 2.23945
H   -0.43741 4.49813 2.54677
C   -0.892911 2.60781 1.99381
H   -1.82497 2.70553 2.14984
C   1.3259 -0.049692 0.785716
H   0.634223 -0.729015 1.0316
C   -3.829 -1.60354 -0.308169
C   -4.81757 -2.55376 -0.541643
H   -5.26742 -2.5916 -1.37753
C   -5.13022 -3.44089 0.467081
H   -5.80761 -4.09364 0.334766
C   -4.45284 -3.37702 1.67506
H   -4.6528 -3.98777 2.37464
C   -3.48485 -2.412 1.84214
H   -3.00982 -2.37726 2.66412
C   -1.16168 1.39979 -1.23972
C   -1.99213 2.50422 -1.37964
H   -2.93192 2.40086 -1.28683
C   -1.46531 3.74886 -1.65196
H   -2.03755 4.49838 -1.76702
C   -0.0960524 3.89217 -1.75539
H   0.291794 4.74557 -1.91149
C   0.695767 2.77293 -1.62741
H   1.63799 2.86794 -1.70349
C   -1.61922 0.0538977 -0.823534
H   -0.938707 -0.617161 -1.11712
C   2.1866 0.58275 -4.0698
C   2.23594 0.219018 -5.53365
H   1.60895 -0.513595 -5.7096
H   3.14394 -0.0649034 -5.76931
H   1.98708 0.998488 -6.0725
C   -1.19843 -0.559073 4.02925
C   -1.38509 -0.365913 5.5056
H   -1.27185 0.581473 5.72825
H   -0.719849 -0.897469 5.99111
H   -2.28524 -0.656673 5.76176
