50

Nb  -3.30427 -1.56164 -0.402971
Nb  0.106016 -3.18501 -1.79371
Nb  -1.4912 -0.20014 -3.37827
Nb  -3.13392 1.43647 1.27896
Nb  -1.81977 -1.30454 2.87706
Nb  1.56964 -2.93323 1.51465
Nb  3.11757 -1.58647 -1.25957
Nb  1.57988 1.3649 -2.99138
Nb  -1.46925 2.86759 -1.7517
Nb  0.152339 3.13289 1.90116
Nb  1.53019 0.319033 3.38305
Nb  3.20968 1.62413 0.673641
Sb  1.54029 3.94094 -0.968535
Sb  -1.49941 -3.9668 0.956854
O   -4.69316 -2.56694 -0.845815
O   -1.72658 -2.94054 -0.747201
O   -2.90217 -2.38189 1.45828
O   -4.11681 -0.0327039 0.354845
O   -2.80656 -0.736941 -2.05153
O   -0.288406 -4.67694 -2.68268
O   -0.509249 -1.8291 -2.97508
O   1.94023 -2.97305 -2.11999
O   0.442802 -4.01013 0.0956024
O   -2.26792 -0.600782 -4.89873
O   0.199066 0.63787 -4.0848
O   -2.0767 1.73621 -3.17863
O   -4.45885 2.45424 1.81728
O   -1.59057 2.41217 2.00465
O   -2.69749 2.2476 -0.460991
O   -3.03279 0.147232 2.7994
O   -2.37161 -2.19615 4.3135
O   -0.436532 -2.72112 2.1209
O   -0.332844 -0.306122 3.50439
O   2.05065 -4.29663 2.55131
O   3.04445 -2.77918 0.341365
O   1.94966 -1.43709 2.60556
O   4.65634 -2.01653 -1.98139
O   2.42097 -0.265269 -2.53552
O   3.58848 -0.083401 -0.0849369
O   2.66605 2.05883 -4.20156
O   0.434723 3.06066 -2.56907
O   2.43309 2.1698 -1.23732
O   -2.14807 4.42672 -2.23786
O   -0.242621 3.51006 -0.153168
O   -0.0689086 4.78656 2.50109
O   0.87641 2.22605 3.41069
O   2.02776 3.32977 1.01219
O   2.04392 0.161989 5.05202
O   3.13332 1.07692 2.48474
O   4.77215 2.45972 0.579204
