39

W   0.534598 3.55069 -0.71112
W   0.534598 -3.55069 -0.71112
W   -1.52141 1.84176 -2.74269
W   -1.52141 -1.84176 -2.74269
W   -2.88688 0 0.191786
W   -0.758007 1.70137 2.22938
W   -0.758007 -1.70137 2.22938
W   2.89943 1.66267 1.42339
W   2.89943 -1.66267 1.42339
O   0.455217 5.20914 -0.220502
O   0.455217 -5.20914 -0.220502
O   -2.89666 2.41369 -3.61137
O   -2.89666 -2.41369 -3.61137
O   -4.60521 0 0.226912
O   -1.11786 2.73387 3.54214
O   -1.11786 -2.73387 3.54214
O   3.57628 2.7585 2.58449
O   3.57628 -2.7585 2.58449
O   1.57669 3.67683 -2.20887
O   1.57669 -3.67683 -2.20887
O   -1.04761 3.4323 -1.77171
O   -1.04761 -3.4323 -1.77171
O   -0.553357 2.87286 0.778168
O   -0.553357 -2.87286 0.778168
O   2.00822 2.87461 0.278192
O   2.00822 -2.87461 0.278192
O   -0.179532 2.22017 -3.9793
O   -0.179532 -2.22017 -3.9793
O   -1.48917 0 -3.20882
O   -2.46764 1.29657 -1.12687
O   -2.46764 -1.29657 -1.12687
O   -2.55545 1.33175 1.54736
O   -2.55545 -1.33175 1.54736
O   -0.90711 0 3.13703
O   1.10753 1.56749 2.34732
O   1.10753 -1.56749 2.34732
O   4.25619 1.42323 0.292294
O   4.25619 -1.42323 0.292294
O   3.25514 0 2.35245
