49

W   0.567665 0.245813 2.53835
W   1.37575 -1.53546 -0.200573
W   -1.7863 -1.63313 1.06037
W   -3.33278 -0.390539 -2.04598
W   -3.63452 2.9386 -2.07004
W   -4.10993 1.20877 0.801982
W   -1.43413 3.31273 2.45866
W   -1.02576 4.9446 -0.485289
W   1.59588 3.44765 0.995662
O   1.28933 0.135569 4.12096
O   2.38579 -2.93027 -0.259425
O   -2.72702 -2.92691 1.73527
O   -4.34583 -1.55402 -2.84408
O   0.396275 -1.66755 -1.92663
O   -1.91941 -0.269318 -3.10559
O   2.39061 -0.228942 -0.851658
O   -2.26003 3.02909 -3.2632
O   -4.84773 3.8898 -2.87374
O   -5.43628 1.09618 1.86379
O   -2.00005 3.805 4.00274
O   -1.32966 6.63351 -0.628468
O   -0.312634 4.49611 -2.04829
O   2.16073 2.86027 -0.622591
O   3.05739 4.10042 1.67658
O   -0.79527 -1.12747 2.66518
O   -0.813324 1.44775 2.83013
O   1.60708 1.63799 1.76441
O   1.66485 -1.07918 1.67598
O   -0.287359 -2.55372 0.469521
O   -2.45862 -1.48763 -0.722671
O   -2.91237 -0.137385 1.49571
O   -4.22066 1.19692 -2.66118
O   -4.61183 -0.0963804 -0.455285
O   -4.65877 2.5556 -0.369356
O   -2.70415 4.20226 -0.916657
O   -2.99662 2.50847 1.75579
O   -1.72443 4.85169 1.44752
O   0.386647 3.76699 2.58189
O   0.751332 5.05508 0.351434
K   1.89353 -3.03874 -3.81561
K   5.32735 -4.35063 -3.36956
K   4.07923 -7.44332 0.831744
K   6.20355 -3.76477 1.56755
K   4.78333 -3.96514 -0.209297
K   5.97608 -4.7032 -3.91163
O   6.419 -6.3601 0.818273
O   6.20355 -6.74985 -4.68656
O   4.75926 -8.40496 1.12324
O   3.41125 -4.96826 1.7106
