13

Bi  0.613053 0.307555 -2.3992
Bi  -1.18041 2.45181 0.0722326
Bi  -2.46252 -0.901101 -0.684949
Bi  2.1316 0.95982 0.812842
Bi  -1.00557 -0.199931 2.58678
Bi  0.797721 -2.35892 0.167579
O   -1.05856 -1.50158 0.849693
O   -1.20368 0.745422 -1.31504
O   1.48009 -0.467706 -0.629261
O   0.069319 1.37371 1.35089
O   1.30191 -0.799054 2.03142
O   -0.410122 -1.82388 -1.74057
O   0.92717 2.21385 -1.10243
