14

Ca  -0.221974 3.27454 -0.306938
V   1.19049 -0.329056 2.9247
V   -0.338248 -0.0750177 0.0471833
V   -0.799648 -0.691613 -2.9273
O   2.44158 0.655491 2.40857
O   1.6922 -1.67928 3.79678
O   0.172221 0.686993 3.81224
O   0.21123 -0.891476 1.51105
O   0.724504 1.13011 -0.294084
O   -1.78575 0.657847 0.421982
O   -0.41565 -1.32406 -1.24261
O   -1.46205 0.784803 -2.58839
O   -1.9808 -1.63493 -3.644
O   0.571891 -0.564357 -3.91917
