89

As  -0.09843 1.80214 0.832268
As  0.249478 -1.78793 -0.651324
K   -1.1921 -5.75547 5.92109
O   -2.46576 4.45241 4.69705
O   2.68564 5.70745 2.94402
O   -1.72173 6.68028 -0.337016
O   -1.26511 -0.037837 5.54411
O   3.89903 1.20476 4.0615
O   4.82501 2.97187 -0.317363
O   0.623925 4.16741 -3.72445
O   -3.85762 3.08933 -2.44956
O   -4.95048 1.0502 2.50186
O   -0.843268 -4.13102 3.84452
O   4.35796 -2.88166 2.32892
O   5.16225 -1.07958 -2.06047
O   1.00057 0.0123431 -5.46888
O   -3.54123 -1.16915 -4.1326
O   -4.48459 -3.13479 0.918783
O   -1.55832 -6.67464 -0.11487
O   3.77271 -5.61123 -1.44165
O   -0.253378 -4.55784 -5.08958
O   0.138337 4.71168 3.62252
O   0.53237 5.77971 1.1946
O   -1.93033 5.21989 2.03816
O   -0.930187 2.23218 4.04152
O   1.99029 2.93445 3.17296
O   2.49326 3.92283 0.824856
O   0.112841 4.56943 -1.08503
O   -2.32437 3.97082 -0.378732
O   -2.86906 2.79397 2.42624
O   -2.21659 0.311632 2.89071
O   1.17905 0.627928 4.44806
O   3.11792 1.44762 1.35334
O   2.48167 3.37038 -1.83099
O   -1.11793 2.53299 -2.16777
O   -4.01987 1.9267 0.0660121
O   -0.258013 3.36132 1.48944
O   0.476742 0.829257 2.05027
O   0.977395 1.90017 -0.441157
O   -1.61743 1.32194 0.320614
O   -0.25106 -1.4833 3.50728
O   2.66015 -0.774013 2.67899
O   3.42156 0.851619 -1.23325
O   1.03418 1.51462 -3.197
O   -2.97568 0.53643 -2.05799
O   -3.53544 -0.587245 0.82983
O   -1.89325 -2.53303 1.74461
O   1.61596 -3.297 2.81167
O   3.41692 -1.36749 0.151984
O   2.82471 -0.582403 -3.46655
O   -0.908167 -0.366401 -3.40067
O   -3.6606 -2.03139 -1.49762
O   -0.256854 -4.5009 1.20165
O   2.65551 -3.83009 0.399239
O   3.11676 -2.87281 -1.94666
O   0.765313 -2.26345 -3.91156
O   -1.66147 -2.88388 -3.21306
O   -2.24208 -4.00152 -0.371067
O   1.07474 -5.7563 -0.685125
O   1.65884 -4.72764 -3.07946
O   -0.90469 -5.25016 -2.43255
O   0.41416 -3.35974 -1.29431
O   0.74677 -1.85113 0.937306
O   1.21729 -0.758813 -1.54071
O   -1.36594 -1.35278 -0.776551
W   -1.5261 3.8491 3.40167
W   1.5404 4.63669 2.25758
W   -3.43299 1.17378 1.70266
W   -0.653437 0.24747 3.98732
W   2.46823 1.122 3.11951
W   3.19476 2.41877 -0.295127
W   -3.10432 -2.32082 0.314832
W   -0.258245 -3.199 2.52507
W   2.87061 -2.33548 1.68342
W   3.48298 -1.04119 -1.75486
W   -0.833533 -5.19245 -0.569886
W   2.39962 -4.57441 -1.27208
W   -1.17055 5.17658 0.313368
W   -2.80856 2.22889 -1.42181
W   0.653477 3.26492 -2.28569
W   -2.47503 -1.25937 -2.81625
W   0.938108 -0.19775 -3.77691
W   0.0244154 -3.88204 -3.56296
Mo  -1.17055 5.17658 0.313368
Mo  -2.80856 2.22889 -1.42181
Mo  0.653477 3.26492 -2.28569
Mo  -2.47503 -1.25937 -2.81625
Mo  0.938108 -0.19775 -3.77691
Mo  0.0244154 -3.88204 -3.56296
