33

Nb  2.11497 1.07088 1.29364
Nb  0.394165 -1.91491 1.85814
Nb  -1.93489 3.06213 -1.09154
Nb  -1.28869 1.13507 2.07661
Nb  3.1477 -0.216342 -2.0928
Nb  1.39525 3.01868 -1.86109
Nb  1.45854 -3.14322 -1.55413
Nb  -3.76158 -0.0745636 -0.511256
Nb  -2.12547 -3.0713 -0.691697
O   2.57193 4.30239 -2.18947
O   2.37442 1.49769 -2.61238
O   1.85635 2.57114 -0.0441774
O   3.09207 0.187726 -0.225292
O   0.574094 1.76582 2.29785
O   -0.833284 -0.651817 2.76316
O   1.4117 -2.80469 0.346215
O   1.95769 -4.83624 -1.57196
O   -2.90764 0.328344 1.17229
O   -3.222 1.61197 -1.32973
O   -1.55507 2.59973 0.721148
O   1.93908 -0.721038 2.12302
O   -2.01317 1.88582 3.47641
O   3.47054 1.66499 2.22152
O   -3.0762 4.39496 -0.8759
O   -0.470323 -3.41284 -1.6927
O   0.602014 -3.07538 3.14631
O   4.8438 0.119392 -2.47289
O   -1.21382 -2.72921 0.951669
O   -2.65326 -4.73485 -0.439659
O   -3.68734 -2.01606 -0.10342
O   -5.43596 0.333148 -0.129133
O   3.17273 -2.15452 -1.71554
O   -0.198361 4.00709 -1.24322
