10

Mg  1.5192 2.01224 2.27564
V   -1.2908 0.628787 0.591615
V   0.962192 -1.20118 -1.16061
O   -0.599255 -0.658559 -0.488016
O   1.88445 -1.69367 0.235542
O   -0.0148535 1.49574 1.11495
O   1.69269 0.0820053 -1.96657
O   -2.28651 1.66236 -0.323444
O   0.214443 -2.25219 -2.21398
O   -2.08156 -0.0755318 1.93487
