60

W   -1.14388 1.4522 -4.38225
W   -3.13345 3.61646 -2.73214
W   -2.84962 0.446829 -1.63084
W   -2.13986 4.84556 0.670244
W   -1.85214 1.66808 1.68143
W   0.720257 3.77766 1.99553
W   0.354527 -0.729699 -0.111338
W   2.93382 1.51585 0.0488529
W   1.96055 0.268479 -2.91476
O   -0.888526 5.78125 -0.523046
O   1.43804 4.9271 0.62901
O   -1.7 4.8895 -3.03913
O   0.0897622 2.7231 -4.65523
O   2.2721 1.88771 -3.61595
O   -1.35008 -0.511233 -1.08569
O   -0.750563 5.03038 2.00129
O   -2.80497 3.37934 1.68441
O   1.92844 -0.20306 0.722909
O   1.16463 -1.16766 -1.7262
O   -2.85263 1.25308 0.151713
O   -2.59301 2.76477 -4.3315
O   1.86824 2.42714 1.40022
O   -0.51477 2.53634 2.77445
O   -3.95634 2.03 -2.11495
O   -2.98432 4.24267 -0.903004
O   -2.49894 0.253542 -3.45197
O   -0.626395 0.341869 1.20327
O   3.27296 0.408954 -1.5061
O   0.173795 0.263448 -3.68374
O   -1.42282 0.799918 -5.93608
O   -4.49816 4.47182 -3.30147
O   -4.12315 -0.705714 -1.43642
O   -3.16493 6.12445 1.17092
O   -2.74602 0.912287 2.93976
O   1.52835 4.3354 3.41157
O   0.116101 -2.2899 0.577017
O   3.28676 3.01458 -0.77595
O   2.81768 -0.770856 -3.97779
O   4.36664 1.18238 0.968304
K   -3.23015 -7.90122 1.38527
K   -1.64984 -5.82249 0.969536
K   3.23032 -3.24677 -1.97675
K   1.6036 -4.09161 -1.6527
K   1.52333 -4.65202 1.30699
K   -4.35518 -2.7717 0.0856727
K   -2.63314 -3.30845 -0.244083
K   3.58652 -2.40487 4.0102
K   2.82019 -3.66702 4.67052
K   8.02268 -4.12312 2.41914
K   7.51598 -2.78285 3.2093
O   -2.54535 -2.16338 2.02023
O   -5.10646 -3.89444 -1.38212
O   -5.30211 -1.57335 0.976401
O   3.34947 -2.50589 1.6025
O   3.84865 -2.50243 -1.05573
O   5.39635 -2.83234 5.59314
O   1.0693 -4.52171 -1.36759
O   -0.912356 -4.29804 2.42441
O   1.04422 -3.37364 3.90585
O   3.02588 -4.7567 6.90448
