50

Na  0.036143 6.29866 -0.563284
Na  -5.27281 -3.27611 1.21534
P   -0.492167 3.89279 -2.94187
P   2.87892 -2.2833 -3.422
P   -3.99676 -2.22198 -1.78261
Nb  2.51596 1.07172 2.49952
Nb  0.795155 -1.91407 3.06402
Nb  -1.5339 3.06297 0.114342
Nb  -0.887701 1.13591 3.28249
Nb  3.54869 -0.215504 -0.886919
Nb  1.79624 3.01952 -0.655207
Nb  1.85953 -3.14238 -0.348249
Nb  -3.36059 -0.0737251 0.694626
Nb  -1.72448 -3.07046 0.514185
O   2.97292 4.30322 -0.983584
O   2.77541 1.49853 -1.4065
O   2.25734 2.57198 1.1617
O   3.49306 0.188564 0.98059
O   0.975085 1.76666 3.50373
O   -0.432294 -0.650978 3.96904
O   1.81269 -2.80385 1.5521
O   2.35868 -4.8354 -0.366075
O   -2.50665 0.329183 2.37817
O   -2.82101 1.61281 -0.123849
O   -1.15408 2.60057 1.92703
O   2.34007 -0.720199 3.32891
O   -1.61217 1.88666 4.6823
O   3.87153 1.66583 3.4274
O   -2.67521 4.3958 0.329982
O   0.867541 3.19847 -2.59471
O   -1.55944 3.20374 -2.03186
O   -0.0693328 -3.412 -0.486821
O   4.20451 -3.02732 -3.35773
O   1.8251 -2.97086 -2.4978
O   2.31628 -2.22896 -4.83224
O   1.003 -3.07455 4.35219
O   5.24479 0.12023 -1.267
O   -0.812834 -2.72837 2.15755
O   -2.64212 -2.92761 -1.43565
O   -3.83234 -0.739676 -1.30083
O   -4.20667 -2.23415 -3.28671
O   -0.836618 3.63954 -4.39717
O   3.05461 -0.826796 -2.88455
O   -5.14975 -2.89965 -1.04926
O   -2.25227 -4.73402 0.766223
O   -3.28634 -2.01522 1.10246
O   -5.03497 0.333986 1.07675
O   3.57372 -2.15369 -0.50966
O   0.202629 4.00793 -0.0373364
O   -0.427123 5.37553 -2.63118
