31

W   0.0713832 0.966055 -0.958238
W   -3.32007 0.899059 -0.682693
W   -1.58212 1.01737 2.01374
W   -1.75313 -1.89131 -0.998944
W   1.69687 0.855018 2.00936
W   3.4106 0.465921 -0.693652
W   1.5088 -2.12875 -0.937885
O   -1.57496 -0.061739 0.200306
O   0.12888 1.81831 0.748266
O   1.48942 -0.248705 0.153338
O   -0.0564571 -0.71612 -1.85376
O   1.4494 1.70405 -1.74104
O   -1.30748 1.79753 -1.67841
O   -2.88284 -0.549928 -1.83497
O   -2.73752 2.01566 0.779578
O   -4.02014 2.01566 -1.72538
O   -4.68356 0.146001 0.122026
O   -1.43385 2.35843 3.11232
O   -2.74595 0.01097 2.81486
O   0.0256808 0.052518 2.54871
O   -2.89127 -2.59617 0.0594019
O   -0.189141 -2.54423 -0.0815021
O   -1.74976 -2.90778 -2.39859
O   1.75479 2.15069 3.15929
O   2.95316 1.67289 0.748266
O   2.71096 -0.352575 2.70527
O   2.80363 -0.944634 -1.81932
O   4.22524 1.48592 -1.75669
O   4.67174 -0.394123 0.10637
O   1.46625 -3.18823 -2.30465
O   2.56143 -2.90778 0.18465
