25

Ta  1.34818 1.38258 -1.35986
Ta  0.523255 -1.85885 -1.35986
Ta  -1.87144 0.476272 -1.35986
Ta  1.87344 -0.486267 1.38456
Ta  -1.35784 -1.37931 1.38456
Ta  -0.5156 1.86558 1.38456
O   -1.77636e-15 8.88178e-16 -0.0149169
O   0.67983 2.64613 0.00142694
O   1.9517 -1.91181 0.00142694
O   -2.63153 -0.734315 0.00142694
O   2.64224 0.714535 -0.00831651
O   -0.702312 -2.64551 -0.00831651
O   -1.93992 1.93098 -0.00831651
O   3.34669 -0.83074 2.33483
O   -2.39279 -2.48295 2.33483
O   -0.953903 3.31369 2.33483
O   2.37459 2.46008 -2.39923
O   0.943197 -3.28649 -2.39923
O   -3.31778 0.826413 -2.39923
O   1.09843 1.11754 2.27008
O   0.418604 -1.51004 2.27008
O   -1.51704 0.3925 2.27008
O   1.55344 -0.401153 -2.21851
O   -1.12413 -1.14474 -2.21851
O   -0.42931 1.54589 -2.21851
