48

W   -2.94251 -0.526926 -0.526926
W   2.94251 0.526926 -0.526926
W   2.94251 -0.526926 0.526926
W   -2.94251 0.526926 0.526926
W   -0.526926 -2.94251 -0.526926
W   -0.526926 2.94251 0.526926
W   0.526926 2.94251 -0.526926
W   0.526926 -2.94251 0.526926
W   -0.526926 -0.526926 -2.94251
W   0.526926 -0.526926 2.94251
W   -0.526926 0.526926 2.94251
W   0.526926 0.526926 -2.94251
O   1.8984 1.8984 -0.14603
O   -1.8984 -1.8984 -0.14603
O   1.8984 -1.8984 0.14603
O   -1.8984 1.8984 0.14603
O   1.8984 0.14603 -1.8984
O   -1.8984 0.14603 1.8984
O   -1.8984 -0.14603 -1.8984
O   1.8984 -0.14603 1.8984
O   0.14603 1.8984 -1.8984
O   0.14603 -1.8984 1.8984
O   -0.14603 1.8984 1.8984
O   -0.14603 -1.8984 -1.8984
O   -1.60633 -1.60633 0.292061
O   1.60633 1.60633 0.292061
O   1.60633 -1.60633 -0.292061
O   -1.60633 1.60633 -0.292061
O   0.292061 -1.60633 -1.60633
O   0.292061 1.60633 1.60633
O   -0.292061 1.60633 -1.60633
O   -0.292061 -1.60633 1.60633
O   -1.60633 0.292061 -1.60633
O   1.60633 0.292061 1.60633
O   -1.60633 -0.292061 1.60633
O   1.60633 -0.292061 -1.60633
O   -3.27351 0.644968 0.644968
O   3.27351 -0.644968 0.644968
O   3.27351 0.644968 -0.644968
O   -3.27351 -0.644968 -0.644968
O   0.644968 -3.27351 0.644968
O   0.644968 3.27351 -0.644968
O   -0.644968 3.27351 0.644968
O   -0.644968 -3.27351 -0.644968
O   0.644968 0.644968 -3.27351
O   -0.644968 0.644968 3.27351
O   0.644968 -0.644968 3.27351
O   -0.644968 -0.644968 -3.27351
