60

As  -0.669875 4.04153 -1.882
As  0.669875 -4.04153 1.882
As  -1.04845 4.17359 1.35215
As  1.04845 -4.17359 -1.35215
As  -3.8685 -0.94435 -2.04472
As  3.8685 0.94435 2.04472
As  -4.24821 -0.821331 1.18947
As  4.24821 0.821331 -1.18947
V   -2.361 1.42919 2.58215
V   2.361 -1.42919 -2.58215
V   -1.65032 -1.93574 2.81985
V   1.65032 1.93574 -2.81985
V   1.67185 -1.21572 3.14239
V   -1.67185 1.21572 -3.14239
V   0.95324 2.11665 2.9199
V   -0.95324 -2.11665 -2.9199
V   -3.09661 2.01534 -0.437944
V   3.09661 -2.01534 0.437944
V   1.98809 3.10803 0.103286
V   -1.98809 -3.10803 -0.103286
O   -3.49786 2.08951 3.46908
O   3.49786 -2.08951 -3.46908
O   -2.43694 -2.86742 3.84348
O   2.43694 2.86742 -3.84348
O   2.56615 -1.80548 4.31706
O   -2.56615 1.80548 -4.31706
O   1.49503 3.15688 4.01906
O   -1.49503 -3.15688 -4.01906
O   -4.43183 2.84933 -0.643574
O   4.43183 -2.84933 0.643574
O   2.83138 4.44315 0.190926
O   -2.83138 -4.44315 -0.190926
O   -0.98951 4.80497 -0.318595
O   0.98951 -4.80497 0.318595
O   -4.7594 -1.02938 -0.505468
O   4.7594 1.02938 0.505468
O   -0.80589 2.03343 3.28897
O   0.80589 -2.03343 -3.28897
O   -2.25559 -0.274983 3.18387
O   2.25559 0.274983 -3.18387
O   0.0056673 -1.78739 3.55154
O   -0.0056673 1.78739 -3.55154
O   1.4769 0.524639 3.61512
O   -1.4769 -0.524639 -3.61512
O   -2.11504 2.77335 1.10966
O   2.11504 -2.77335 -1.10966
O   0.822892 3.18944 -1.46212
O   -0.822892 -3.18944 1.46212
O   -1.75346 2.63405 -1.7315
O   1.75346 -2.63405 1.7315
O   -3.07394 0.616903 -1.8209
O   3.07394 -0.616903 1.8209
O   2.50495 1.99001 1.62967
O   -2.50495 -1.99001 -1.62967
O   0.487388 3.29437 1.3523
O   -0.487388 -3.29437 -1.3523
O   -3.36184 0.696504 0.990439
O   3.36184 -0.696503 -0.990439
O   -2.85065 -1.9086 1.2082
O   2.85065 1.9086 -1.2082
