10

Cr  -0.48563 0.41529 1.02593
Cr  0.739271 -0.04251 -1.8504
Na  -0.714526 -2.08081 3.94451
O   -1.96417 0.13189 0.378883
O   -0.392834 -0.32591 2.46709
O   -0.287666 2.07209 1.17683
O   0.34953 1.43989 -2.25626
O   2.30442 -0.32591 -2.34965
O   0.782576 -0.16241 -0.0814065
O   -0.330971 -1.12161 -2.45552
