46

W   0.16455 2.3429 -2.2778
W   -2.04408 -0.161003 -2.73458
W   0.692102 -2.5444 -2.27268
W   2.90327 -0.116061 -1.84402
W   -0.480365 2.36668 2.53384
W   -2.78256 -0.531362 2.23323
W   -2.30803 -2.86062 -0.109169
W   -2.62754 2.13307 -0.41865
W   1.82287 -0.00022642 2.99734
W   2.30652 2.44834 0.73632
W   2.50197 -2.49777 0.541263
O   0.645896 -1.2517 3.30665
O   1.12412 -3.08142 1.4734
O   -2.04442 -1.7435 3.26196
O   -1.65861 -3.76548 1.26036
O   0.735997 1.45105 3.73473
O   2.97235 1.61399 2.24782
O   2.83488 -1.02543 1.74007
O   2.89033 -0.124286 4.38074
O   3.71626 -1.39221 -0.758053
O   1.9512 -3.3982 -1.10675
O   3.78094 -3.55393 1.00421
O   0.961249 3.36938 1.85325
O   1.11257 2.8643 -0.728855
O   3.0971 1.20628 -0.455653
O   3.38358 3.77575 0.555316
O   1.54113 1.06698 -2.55286
O   2.17415 -1.50487 -2.94527
O   4.24531 0.39714 -2.81357
O   -1.42873 3.16116 -1.60407
O   -0.933179 1.29062 -3.46252
O   0.641276 3.56412 -3.38746
O   -1.49458 2.77666 0.996839
O   -1.66669 0.900776 2.80885
O   -1.11338 3.47499 3.67346
O   -3.91806 3.2751 -0.3233
O   -3.17299 1.22004 -2.01454
O   -2.92926 -0.547901 -4.15633
O   -0.480365 -1.25997 -3.02098
O   -2.66589 -1.41376 -1.52792
O   -3.50452 -1.8007 0.950747
O   -3.43059 -3.96797 -0.805851
O   -0.734495 -3.10237 -1.20068
O   -3.16144 0.805434 0.672895
O   -4.25767 -0.144436 3.08623
O   0.63781 -3.71517 -3.52796
