13

V   -0.264848 -0.0905741 0.219499
V   2.10965 0.027091 2.37702
V   -1.74043 0.289431 -2.63421
O   0.885966 -0.404141 3.47667
O   -3.05896 1.3178 -2.97548
O   -0.722158 0.145743 -4.00396
O   -0.854074 0.950197 -1.1396
O   3.08457 -1.28685 1.96619
O   2.96522 1.3694 2.82096
O   0.113313 -1.61197 -0.253291
O   1.19377 0.592164 0.918094
O   -2.33028 -1.15296 -2.20314
O   -1.38174 -0.145346 1.43126
