48

W   -2.8682 -0.383823 -0.383823
W   2.8682 0.383823 -0.383823
W   2.8682 -0.383823 0.383823
W   -2.8682 0.383823 0.383823
W   -0.383823 -2.8682 -0.383823
W   -0.383823 2.8682 0.383823
W   0.383823 2.8682 -0.383823
W   0.383823 -2.8682 0.383823
W   -0.383823 -0.383823 -2.8682
W   0.383823 -0.383823 2.8682
W   -0.383823 0.383823 2.8682
W   0.383823 0.383823 -2.8682
O   1.41898 1.41898 0.209358
O   -1.41898 -1.41898 0.209358
O   1.41898 -1.41898 -0.209358
O   -1.41898 1.41898 -0.209358
O   1.41898 -0.209358 -1.41898
O   -1.41898 -0.209358 1.41898
O   -1.41898 0.209358 -1.41898
O   1.41898 0.209358 1.41898
O   -0.209358 1.41898 -1.41898
O   -0.209358 -1.41898 1.41898
O   0.209358 1.41898 1.41898
O   0.209358 -1.41898 -1.41898
O   -1.76791 -1.76791 0.395454
O   1.76791 1.76791 0.395454
O   1.76791 -1.76791 -0.395454
O   -1.76791 1.76791 -0.395454
O   0.395454 -1.76791 -1.76791
O   0.395454 1.76791 1.76791
O   -0.395454 1.76791 -1.76791
O   -0.395454 -1.76791 1.76791
O   -1.76791 0.395454 -1.76791
O   1.76791 0.395454 1.76791
O   -1.76791 -0.395454 1.76791
O   1.76791 -0.395454 -1.76791
O   -2.74492 0.860694 0.860694
O   2.74492 -0.860694 0.860694
O   2.74492 0.860694 -0.860694
O   -2.74492 -0.860694 -0.860694
O   0.860694 -2.74492 0.860694
O   0.860694 2.74492 -0.860694
O   -0.860694 2.74492 0.860694
O   -0.860694 -2.74492 -0.860694
O   0.860694 0.860694 -2.74492
O   -0.860694 0.860694 2.74492
O   0.860694 -0.860694 2.74492
O   -0.860694 -0.860694 -2.74492
