62

W   -1.81824 -2.4717 -7.55729
W   -1.81824 -2.4717 4.85671
W   -1.81824 2.4717 -0.0512898
W   -1.81824 2.4717 12.3627
W   0.506395 -0.112397 -7.55394
W   0.506395 -0.112397 4.86006
W   0.506395 0.112397 -0.0546416
W   0.506395 0.112397 12.3594
W   0.540074 -2.45567 -9.8987
W   0.540074 -2.45567 2.5153
W   0.540074 2.45567 -10.1239
W   0.540074 2.45567 2.29011
O   1.71833 0.16409 -6.36654
O   1.71833 0.16409 6.04746
O   1.71833 -0.164091 -1.24204
O   1.71833 -0.164091 11.172
O   1.72654 -3.65173 -10.1752
O   1.72654 -3.65173 2.23884
O   1.72654 3.65172 -9.84743
O   1.72654 3.65172 2.56657
O   -0.442022 -1.47966 -6.61979
O   -0.442022 -1.47966 5.79421
O   -0.442022 1.47966 -0.988795
O   -0.442022 1.47966 11.4252
O   1.42426 -1.49294 -8.51789
O   1.42426 -1.49294 3.89611
O   1.42426 1.49294 -11.5047
O   1.42426 1.49294 0.909305
O   -0.837949 1.13725 -7.04683
O   -0.837949 1.13725 5.36717
O   -0.837949 -1.13725 -0.561754
O   -0.837949 -1.13725 11.8522
O   -0.831378 2.9432 -8.86672
O   -0.831378 2.9432 3.54728
O   -0.831378 -2.9432 -11.1559
O   -0.831378 -2.9432 1.25814
O   1.01683 1.11923 -8.87417
O   1.01683 1.11923 3.53983
O   1.01683 -1.11923 -11.1484
O   1.01683 -1.11923 1.26559
O   -0.428879 -3.37856 -8.52906
O   -0.428879 -3.37856 3.88494
O   -0.428879 3.37856 -11.4935
O   -0.428879 3.37856 0.920478
K   2.37711 -5.27296e-15 -3.80429
K   2.37711 -5.27296e-15 8.60971
O   -1.93702 -5.35177e-15 -4.36044
O   -1.93702 -5.35177e-15 8.05356
O   -1.93702 -5.35177e-15 -3.24814
O   -1.93702 -5.35177e-15 9.16586
K   -1.93702 -5.35177e-15 -4.36044
K   -1.93702 -5.35177e-15 8.05356
K   -1.93702 -5.35177e-15 -3.24814
K   -1.93702 -5.35177e-15 9.16586
O   0.0557615 1.71773 -3.91809
O   0.0557615 1.71773 8.49591
O   0.0557615 -1.71773 -3.6905
O   0.0557615 -1.71773 8.7235
K   0.0557615 1.71773 -3.91809
K   0.0557615 1.71773 8.49591
K   0.0557615 -1.71773 -3.6905
K   0.0557615 -1.71773 8.7235
