11

W   -0.53117 -0.128041 0.411275
W   0.684616 1.51234 -2.21518
Na  -0.981091 -4.07838 5.39618
Na  0.495456 -2.44322 2.9375
O   -2.18953 0.0821093 0.87269
O   0.958196 3.10497 -1.56203
O   0.364919 -0.430293 1.97964
O   2.54027 1.08988 -2.56255
O   -0.838048 1.09094 -1.19153
O   0.00379458 1.94271 -3.81597
O   -0.507408 -1.74303 -0.250035
