15

Re  -3.06393 -4.44089e-16 -0.701684
Re  0.737472 -4.44089e-16 -0.701684
O   -3.06393 -4.44089e-16 1.27556
O   0.737472 -4.44089e-16 1.27556
O   -2.7218 -4.44089e-16 1.13621
O   1.0796 -4.44089e-16 1.13621
O   0.395346 -4.44089e-16 1.13621
O   -1.66501 -1.25733 -0.569548
O   2.13639 -1.25733 -0.569548
O   -0.661444 1.25733 -0.569548
O   3.13996 1.25733 -0.569548
O   -0.661444 -1.25733 -0.569548
O   3.13996 -1.25733 -0.569548
O   -1.66501 1.25733 -0.569548
O   2.13639 1.25733 -0.569548
