44

W   -2.28888 -1.61751 2.22863
W   -1.61751 2.22863 -2.28888
W   2.22863 -2.28888 -1.61751
W   0.495387 -3.18239 1.49262
W   -3.18239 1.49262 0.495387
W   1.49262 0.495387 -3.18239
W   2.60566 -0.119386 1.42657
W   -0.119386 1.42657 2.60566
W   1.42657 2.60566 -0.119386
Si  -0.379381 -0.379381 -0.379381
O   -3.17556 -0.204182 1.35684
O   -0.204182 1.35684 -3.17556
O   1.35684 -3.17556 -0.204182
O   -3.14928 -2.95305 1.37261
O   -2.95305 1.37261 -3.14928
O   1.37261 -3.14928 -2.95305
O   -3.14052 -1.63556 3.74831
O   -1.63556 3.74831 -3.14052
O   3.74831 -3.14052 -1.63556
O   -0.890963 -1.60928 0.556181
O   -1.60928 0.556181 -0.890963
O   0.556181 -0.890963 -1.60928
O   1.41466 -4.37041 2.36073
O   -4.37041 2.36073 1.41466
O   2.36073 1.41466 -4.37041
O   -0.775331 -4.45801 0.629765
O   -4.45801 0.629765 -0.775331
O   0.629765 -0.775331 -4.45801
O   0.566693 0.566693 0.566693
O   4.07768 -0.445957 2.27138
O   -0.445957 2.27138 4.07768
O   2.27138 4.07768 -0.445957
O   2.93188 1.63541 0.710356
O   1.63541 0.710356 2.93188
O   0.710356 2.93188 1.63541
O   2.84603 -1.03112 -0.155127
O   -1.03112 -0.155127 2.84603
O   -0.155127 2.84603 -1.03112
O   -0.859427 -2.80764 2.77946
O   -2.80764 2.77946 -0.859427
O   2.77946 -0.859427 -2.80764
O   1.5408 -1.73542 1.93675
O   -1.73542 1.93675 1.5408
O   1.93675 1.5408 -1.73542
