54

W   0.920275 0.818454 -2.53935
W   -0.920275 -0.818454 2.53935
W   -2.43261 0.94744 -2.49717
W   2.43261 -0.94744 2.49717
W   2.21729 -2.63288 -3.04508
W   -2.21729 2.63288 3.04508
W   0.712453 -2.74079 0.301796
W   -0.712453 2.74079 -0.301796
W   -1.06189 -2.45823 -2.9206
W   1.06189 2.45823 2.9206
W   3.85327 -0.74981 -0.867442
W   -3.85327 0.74981 0.867442
O   -0.748387 0.625773 -1.05558
O   0.748387 -0.625773 1.05558
O   -0.85732 1.12064 -3.52009
O   0.85732 -1.12064 3.52009
O   0.626721 -1.052 -2.91466
O   -0.626721 1.052 2.91466
O   2.07256 0.509239 -1.21763
O   -2.07256 -0.509239 1.21763
O   1.91836 1.35371 -3.83744
O   -1.91836 -1.35371 3.83744
O   0.493737 2.61164 -1.83432
O   -0.493737 -2.61164 1.83432
O   -2.2395 -1.01369 -2.7391
O   2.2395 1.01369 2.7391
O   -3.46041 0.466137 -0.967801
O   3.46041 -0.466137 0.967801
O   -2.22394 2.6308 -1.78481
O   2.22394 -2.6308 1.78481
O   -3.68959 1.25793 -3.65064
O   3.68959 -1.25793 3.65064
O   2.13198 -2.20777 -0.848514
O   -2.13198 2.20777 0.848514
O   0.564473 -3.56627 -2.76161
O   -0.564473 3.56627 2.76161
O   3.45333 -1.21483 -2.71209
O   -3.45333 1.21483 2.71209
O   2.18857 -2.53342 -4.76248
O   -2.18857 2.53342 4.76248
O   3.23829 -4.01165 -2.75936
O   -3.23829 4.01165 2.75936
O   -0.635209 -2.26364 -0.832759
O   0.635209 2.26364 0.832759
O   0.8361 -4.46981 0.195811
O   -0.8361 4.46981 -0.195811
O   -1.02992 -2.52065 -4.6612
O   1.02992 2.52065 4.6612
O   -2.16169 -3.76741 -2.59956
O   2.16169 3.76741 2.59956
O   4.89918 0.581075 -1.15461
O   -4.89918 -0.581075 1.15461
O   5.00952 -2.05611 -0.645951
O   -5.00952 2.05611 0.645951
