93

W   0.974791 1.68839 -4.98331
W   0.974791 -1.68839 -4.98331
W   -1.94958 -9.16107e-16 -4.98331
W   -0.0914043 3.51573 -1.96693
W   3.09041 -1.67871 -1.96693
W   -2.99901 -1.83702 -1.96693
W   -0.0914043 -3.51573 -1.96693
W   -2.99901 1.83702 -1.96693
W   3.09041 1.67871 -1.96693
W   -0.0937342 3.53194 1.79088
W   3.10561 -1.68479 1.79088
W   -3.01188 -1.84715 1.79088
W   -0.0937342 -3.53194 1.79088
W   -3.01188 1.84715 1.79088
W   3.10561 1.68479 1.79088
W   0.981307 1.69967 4.83959
W   0.981307 -1.69967 4.83959
W   -1.96261 -8.98892e-16 4.83959
O   -0.769644 1.33246 -5.71802
O   1.53876 0.000303988 -5.71802
O   -0.769118 -1.33276 -5.71802
O   -0.769644 -1.33246 -5.71802
O   -0.769118 1.33276 -5.71802
O   1.53876 -0.000303988 -5.71802
O   1.5747 2.72806 -6.19027
O   1.57522 -2.72776 -6.19027
O   -3.14992 -0.000303988 -6.19027
O   1.5747 -2.72806 -6.19027
O   -3.14992 0.000303988 -6.19027
O   1.57522 2.72776 -6.19027
O   0.164538 2.86737 -3.73539
O   2.40094 -1.57618 -3.73539
O   -2.56548 -1.29119 -3.73539
O   0.164538 -2.86737 -3.73539
O   -2.56548 1.29119 -3.73539
O   2.40094 1.57618 -3.73539
O   -1.98433 3.43696 -2.17761
O   3.96866 -1.3753e-15 -2.17761
O   -1.98433 -3.43696 -2.17761
O   0.234303 5.15716 -2.27239
O   4.34908 -2.78149 -2.27239
O   -4.58338 -2.37567 -2.27239
O   0.234303 -5.15716 -2.27239
O   -4.58338 2.37567 -2.27239
O   4.34908 2.78149 -2.27239
O   1.64683 2.85209 -1.59196
O   1.64657 -2.85224 -1.59196
O   -3.2934 0.000151994 -1.59196
O   1.64683 -2.85209 -1.59196
O   -3.2934 -0.000151994 -1.59196
O   1.64657 2.85224 -1.59196
O   -0.368566 3.61594 -0.0589982
O   3.31578 -1.48878 -0.0589982
O   -2.94721 -2.12716 -0.0589982
O   -0.368566 -3.61594 -0.0589982
O   -2.94721 2.12716 -0.0589982
O   3.31578 1.48878 -0.0589982
O   1.68566 2.91935 1.48637
O   1.6854 -2.9195 1.48637
O   -3.37106 0.000151994 1.48637
O   1.68566 -2.91935 1.48637
O   -3.37106 -0.000151994 1.48637
O   1.6854 2.9195 1.48637
O   -1.98736 3.44282 2.08669
O   3.97525 -0.000303988 2.08669
O   -1.98789 -3.44251 2.08669
O   -1.98736 -3.44282 2.08669
O   -1.98789 3.44251 2.08669
O   3.97525 0.000303988 2.08669
O   0.139529 5.1906 2.10757
O   4.42542 -2.71613 2.10757
O   -4.56495 -2.47446 2.10757
O   0.139529 -5.1906 2.10757
O   -4.56495 2.47446 2.10757
O   4.42542 2.71613 2.10757
O   0.175069 2.89929 3.60837
O   2.42332 -1.60126 3.60837
O   -2.59839 -1.29803 3.60837
O   0.175069 -2.89929 3.60837
O   -2.59839 1.29803 3.60837
O   2.42332 1.60126 3.60837
O   -0.765301 1.32584 5.55376
O   1.53086 -0.000151994 5.55376
O   -0.765564 -1.32569 5.55376
O   -0.765301 -1.32584 5.55376
O   -0.765564 1.32569 5.55376
O   1.53086 0.000151994 5.55376
O   1.56956 2.71887 6.06099
O   1.56983 -2.71872 6.06099
O   -3.13939 -0.000151994 6.06099
O   1.56956 -2.71887 6.06099
O   -3.13939 0.000151994 6.06099
O   1.56983 2.71872 6.06099
