150

W   2.65566 -2.13465 11.1747
W   -2.65566 2.13465 -11.1747
W   2.12481 -5.18234 9.24799
W   -2.12481 5.18234 -9.24799
W   5.21807 -4.61914 10.3567
W   -5.21807 4.61914 -10.3567
W   4.77128 -5.72193 7.2707
W   -4.77128 5.72193 -7.2707
W   1.60656 0.0658799 9.02613
W   -1.60656 -0.0658799 -9.02613
W   4.61847 0.300393 10.2315
W   -4.61847 -0.300393 -10.2315
W   7.35348 -1.68107 8.98665
W   -7.35348 1.68107 -8.98665
W   6.90386 -2.84678 5.94863
W   -6.90386 2.84678 -5.94863
W   3.42185 -3.47641 4.71357
W   -3.42185 3.47641 -4.71357
W   0.8665 -2.71111 6.71069
W   -0.8665 2.71111 -6.71069
W   4.14625 -0.755942 7.18793
W   -4.14625 0.755942 -7.18793
W   2.88641 -0.533663 2.50523
W   -2.88641 0.533663 -2.50523
W   0.458091 0.368448 4.52582
W   -0.458091 -0.368448 -4.52582
W   1.96693 -3.0303 -0.0426321
W   -1.96693 3.0303 0.0426321
W   0.915711 2.31864 1.47372
W   -0.915711 -2.31864 -1.47372
W   -2.391 0.989001 3.06138
W   2.391 -0.989001 -3.06138
W   -0.572643 -2.03 1.86772
W   0.572643 2.03 -1.86772
Na  -5.56397 -1.34927 2.68752
Na  5.56397 1.34927 -2.68752
O   2.07677 -2.43486 12.7679
O   -2.07677 2.43486 -12.7679
O   0.761719 -6.11602 9.72732
O   -0.761719 6.11602 -9.72732
O   5.9878 -5.3727 11.7058
O   -5.9878 5.3727 -11.7058
O   5.16957 -7.24305 6.57864
O   -5.16957 7.24305 -6.57864
O   0.238994 1.12557 8.98645
O   -0.238994 -1.12557 -8.98645
O   5.33792 1.64813 11.0321
O   -5.33792 -1.64813 -11.0321
O   8.66264 -1.94667 10.1
O   -8.66264 1.94667 -10.1
O   7.93036 -3.82873 4.95537
O   -7.93036 3.82873 -4.95537
O   3.50838 -4.37863 3.26901
O   -3.50838 4.37863 -3.26901
O   -0.804102 -2.99386 6.43531
O   0.804102 2.99386 -6.43531
O   4.63625 -0.0292317 5.73846
O   -4.63625 0.0292317 -5.73846
O   4.47142 0.140395 2.39061
O   -4.47142 -0.140395 -2.39061
O   0.321406 1.68857 5.62593
O   -0.321406 -1.68857 -5.62593
O   3.04805 -4.36658 -0.0576714
O   -3.04805 4.36658 0.0576714
O   1.87545 3.36538 2.43103
O   -1.87545 -3.36538 -2.43103
O   -2.57831 2.3295 4.14914
O   2.57831 -2.3295 -4.14914
O   -1.33036 -2.96181 3.09738
O   1.33036 2.96181 -3.09738
O   -3.89689 0.144775 3.25935
O   3.89689 -0.144775 -3.25935
O   1.40806 2.88869 -0.272638
O   -1.40806 -2.88869 0.272638
O   3.68498 -4.91253 5.91329
O   -3.68498 4.91253 -5.91329
O   -1.67767 -0.609244 1.7147
O   1.67767 0.609244 -1.7147
O   -0.195433 1.47758 2.81495
O   0.195433 -1.47758 -2.81495
O   0.655761 -3.56447 -1.27136
O   -0.655761 3.56447 1.27136
O   3.82037 -0.638893 11.6906
O   -3.82037 0.638893 -11.6906
O   3.38006 -1.2631 9.25263
O   -3.38006 1.2631 -9.25263
O   3.97577 -4.09022 8.58392
O   -3.97577 4.09022 -8.58392
O   0.822939 -1.03658 5.58692
O   -0.822939 1.03658 -5.58692
O   -2.72665 1.90024 1.45958
O   2.72665 -1.90024 -1.45958
O   2.95858 -6.30735 8.02259
O   -2.95858 6.30735 -8.02259
O   4.92469 0.620149 8.40397
O   -4.92469 -0.620149 -8.40397
O   5.23785 -3.00842 5.02239
O   -5.23785 3.00842 -5.02239
O   1.28327 -0.889133 10.6711
O   -1.28327 0.889133 -10.6711
O   2.84438 1.16267 9.97232
O   -2.84438 -1.16267 -9.97232
O   7.30638 -1.25956 5.37373
O   -7.30638 1.25956 -5.37373
O   1.79069 -3.49964 10.1776
O   -1.79069 3.49964 -10.1776
O   7.96685 -2.80731 7.53159
O   -7.96685 2.80731 -7.53159
O   5.44623 -6.02675 9.05938
O   -5.44623 6.02675 -9.05938
O   6.48109 -3.54413 9.72423
O   -6.48109 3.54413 -9.72423
O   7.83029 -0.178076 8.25714
O   -7.83029 0.178076 -8.25714
O   3.36357 -5.56957 10.5547
O   -3.36357 5.56957 -10.5547
O   6.13378 -4.63656 6.83076
O   -6.13378 4.63656 -6.83076
O   1.98612 0.800171 1.33067
O   -1.98612 -0.800171 -1.33067
O   2.20157 0.682728 3.89651
O   -2.20157 -0.682728 -3.89651
O   1.55876 -3.55206 5.0978
O   -1.55876 3.55206 -5.0978
O   4.23596 -3.2242 11.2277
O   -4.23596 3.2242 -11.2277
O   2.95034 -1.7471 1.12033
O   -2.95034 1.7471 -1.12033
O   3.21406 -1.78134 3.82936
O   -3.21406 1.78134 -3.82936
O   5.62872 -1.8492 7.56705
O   -5.62872 1.8492 -7.56705
O   6.06432 -0.943313 10.2036
O   -6.06432 0.943313 -10.2036
O   1.27738 -4.16768 7.7395
O   -1.27738 4.16768 -7.7395
O   -1.38805 -0.0982669 4.3253
O   1.38805 0.0982669 -4.3253
O   2.51591 0.364669 7.41901
O   -2.51591 -0.364669 -7.41901
O   0.887691 -3.42576 1.39993
O   -0.887691 3.42576 -1.39993
O   -0.499179 1.32006 0.0225188
O   0.499179 -1.32006 -0.0225188
O   3.06454 -2.17417 6.62108
O   -3.06454 2.17417 -6.62108
O   0.799393 -1.51345 8.15266
O   -0.799393 1.51345 -8.15266
O   0.772315 -1.11622 2.79275
O   -0.772315 1.11622 -2.79275
