23

Fe  0 -8.88178e-16 0.465282
Fe  0 -8.88178e-16 -5.07364
Ca  -0.104974 -2.14493 -2.25723
Ca  1.91005 0.981554 -2.25723
Ca  -1.80508 1.16337 -2.25723
Ca  0.111599 2.14858 3.04114
Ca  -1.91652 -0.977642 3.04114
Ca  1.80492 -1.17094 3.04114
O   0.0982142 1.63847 -0.757907
O   -1.46806 -0.734177 -0.757907
O   1.36985 -0.904289 -0.757907
O   -0.333542 -1.1056 1.62002
O   1.12425 0.263946 1.62002
O   -0.79071 0.841658 1.62002
O   0.0655209 1.53021 -3.81606
O   -1.35796 -0.708361 -3.81606
O   1.29244 -0.821846 -3.81606
O   0.0909838 -1.86791 4.56846
O   1.57217 1.01275 4.56846
O   -1.66315 0.855162 4.56846
O   -0.097348 -3.68344 -0.862305
O   3.23863 1.75741 -0.862305
O   -3.14128 1.92603 -0.862305
