10

Cr  0.299672 -1.47175 0.626233
Cr  0.000747313 1.13579 -1.21859
K   -0.746565 1.63027 2.52333
O   -0.694254 -0.976391 1.89649
O   1.54768 -2.26077 1.22476
O   0.934888 -0.109285 -0.198671
O   -0.499952 -2.36477 -0.341465
O   -1.15759 1.83522 -0.416034
O   1.02457 2.18965 -1.70848
O   -0.7092 0.392039 -2.38758
