11

Se  0 0.732372 4.44089e-16
Cr  0.719944 0.708326 -2.09009
Cr  -0.719944 0.708326 2.09009
C   0.485539 -1.11648 -2.32362
C   -0.485539 -1.11648 2.32362
C   -0.973117 1.03714 -2.80623
C   0.973117 1.03714 2.80623
O   0.397815 -2.24695 -2.50423
O   -0.397815 -2.24695 2.50423
O   -1.99724 1.25177 -3.2823
O   1.99724 1.25177 3.2823
