44

Co  1.28204 0.655191 -2.09495
Co  -0.0962171 -1.37609 -1.96916
Co  1.04701 1.21748 2.12343
Co  -1.2519 0.353047 2.23831
O   1.73735 3.41357 -1.19421
O   3.8641 -0.617904 -1.34761
O   1.46492 0.913371 -5.03813
O   -2.53187 -2.77269 -1.08798
O   1.97397 -3.33927 -1.14236
O   -0.200416 -1.90621 -4.87605
O   3.79814 1.23488 1.0794
O   0.338527 4.03916 1.56223
O   1.67129 1.23901 5.02205
O   -3.4152 -1.44376 1.37735
O   -2.64176 2.95548 1.97078
O   -1.29682 -0.238268 5.13952
C   -1.82906 1.26785 -2.16736
C   -2.17019 2.4062 -1.42161
C   -3.27154 3.1802 -1.77312
C   -4.04393 2.82535 -2.88319
C   -3.70968 1.69556 -3.63121
C   -2.60789 0.92034 -3.27683
C   -0.667571 0.478425 -1.77779
C   0.0272963 0.120149 -0.668642
C   0.051902 0.187154 0.757251
C   0.404848 -0.611584 1.80041
C   0.878705 -1.98591 1.96331
C   2.24066 -2.26728 2.11648
C   2.69564 -3.58539 2.1452
C   1.79705 -4.64516 2.03711
C   0.435451 -4.3739 1.91252
C   -0.0251781 -3.05764 1.87854
C   1.57172 2.35271 -1.5673
C   2.89258 -0.10867 -1.63464
C   1.40274 0.821539 -3.90427
C   -1.58848 -2.22965 -1.42473
C   1.16983 -2.59202 -1.42638
C   -0.181808 -1.71672 -3.75143
C   2.72951 1.20792 1.47638
C   0.634589 2.96104 1.77641
C   1.43555 1.22609 3.90966
C   -2.57217 -0.747135 1.68797
C   -2.12742 1.94086 2.05358
C   -1.31631 0.00268437 4.03107
