24

Nd  -0.690085 1.07459 -2.46739
Nd  0.690085 1.07459 2.46739
O   1.16123 0.754635 -1.17291
O   -1.16123 0.754635 1.17291
O   2.22658 0.542559 0.749695
O   -2.22658 0.542559 -0.749695
C   2.21989 0.496768 -0.509405
C   -2.21989 0.496768 0.509405
C   3.42883 0.105213 -1.33154
C   -3.42883 0.105213 1.33154
C   3.68599 -1.28463 -1.55964
C   -3.68599 -1.28463 1.55964
C   4.54752 -1.61002 -2.59756
C   -4.54752 -1.61002 2.59756
C   5.19874 -0.66703 -3.38809
C   -5.19874 -0.66703 3.38809
C   5.03075 0.659366 -3.05115
C   -5.03075 0.659366 3.05115
C   4.16577 1.08759 -2.02268
C   -4.16577 1.08759 2.02268
H   4.70277 -2.48685 -2.77887
H   -4.70277 -2.48685 2.77887
H   5.50384 1.3278 -3.55378
H   -5.50384 1.3278 3.55378
