67

Ni  2.03696 -0.681794 -0.74748
Ni  1.00919 1.81844 -0.330865
S   -3.09154 -1.47224 -0.578745
O   -3.68438 -0.284931 -0.0132326
O   -3.52272 -1.96722 -1.85302
N   -1.48162 -1.1522 -0.715359
C   1.78266 -2.05403 -2.22526
H   2.22818 -1.87025 -3.0669
H   1.82898 -2.98566 -1.96105
C   0.574036 -1.41656 -2.01838
H   0.336943 -0.794154 -2.73684
C   -0.621356 -2.11627 -1.42021
H   -1.12863 -2.55162 -2.12267
H   -0.320302 -2.79894 -0.799063
C   -0.849627 -0.620537 0.497668
H   -0.677597 -1.34776 1.1166
H   -1.45394 0.00514129 0.927756
C   0.427369 0.0677091 0.176122
C   1.518 0.422642 0.848136
C   2.09254 0.327971 2.21581
H   1.65915 0.971502 2.79749
H   1.93374 -0.558296 2.57632
C   4.28703 -0.324568 1.29966
H   4.09405 -1.2413 1.55043
H   5.23871 -0.175028 1.41263
C   3.91319 -0.109184 -0.139129
H   4.18778 0.765127 -0.487725
C   3.9959 -1.1332 -1.07978
H   4.30247 -1.99473 -0.756531
H   4.3543 -0.895704 -1.94914
C   -3.28452 -2.74948 0.610124
C   -3.48302 -4.07405 0.236178
H   -3.52823 -4.30417 -0.662959
C   -3.61535 -5.05515 1.21953
H   -3.76974 -5.93716 0.970289
C   -3.51941 -4.73199 2.56339
C   -3.2371 -3.41463 2.93291
H   -3.10146 -3.20678 3.82847
C   -3.1566 -2.41567 1.97559
H   -3.01765 -1.53285 2.23095
C   -3.67049 -5.7601 3.64916
H   -4.58357 -5.7832 3.94416
H   -3.10146 -5.53096 4.3882
H   -3.42126 -6.62344 3.30958
C   2.42226 3.40886 -0.45506
H   3.33424 3.18431 -0.174686
C   1.53123 3.62228 0.563678
H   1.91499 3.53154 1.46026
C   0.310476 4.51264 0.495626
H   -0.201204 4.37342 1.30885
H   0.615941 5.43314 0.505834
C   -0.576143 4.36196 -0.603414
H   -0.310378 4.96962 -1.31115
H   -1.47269 4.606 -0.322699
C   -0.94667 3.86895 -0.281868
H   -1.56752 3.50861 0.371431
H   -1.40542 4.57161 -0.76844
C   -0.595992 2.84854 -1.18407
H   -1.46166 2.38829 -1.20908
C   0.295038 2.54962 -2.16691
H   -0.00932408 1.85105 -2.78448
C   1.35148 3.44964 -2.73344
H   1.85985 2.93698 -3.38164
H   0.903761 4.15886 -3.22171
C   2.30537 4.07532 -1.81134
H   2.04291 4.9991 -1.67864
H   3.17986 4.07696 -2.22986
