19

Fe  1.92795 0.0345681 2.70739
Fe  2.05281 1.57286 0.709676
P   0.116378 1.52479 -0.275392
O   -0.80687 -0.725083 3.28135
O   2.09678 -1.2658 0.0964085
O   0.909054 2.72807 3.12243
O   -3.44595 -0.994001 1.66992
O   -3.25085 -2.34989 -0.0896956
O   1.24025 0.367171 -5.03173
O   0.127704 -1.47368 -4.39266
C   0.252377 -0.415792 2.94415
C   2.02255 -0.329757 0.802301
C   1.36492 1.87181 2.44055
C   -1.20754 0.464741 0.359864
C   -1.78142 -0.578008 0.0194928
C   -2.91204 -1.30546 0.646963
C   0.291397 0.878332 -1.92235
C   0.361823 0.248693 -2.87308
C   0.640673 -0.253576 -4.2156
