55

Co  0.553336 -1.71227 -3.14046
Co  -1.25 0.247888 3.55407
O   -0.185947 -0.131657 -5.47667
O   0.168962 -4.39533 -4.25372
O   3.43513 -1.40863 -3.16485
O   -3.94765 1.13822 4.24034
O   -1.0096 -2.35927 4.80483
O   0.547309 1.58516 5.35659
O   -0.182599 1.30849 -1.37033
C   0.125436 -0.727579 -4.53062
C   0.309587 -3.36666 -3.8018
C   2.29507 -1.50795 -3.16641
C   -2.89129 0.80479 3.94658
C   -1.10168 -1.35897 4.29134
C   -0.180924 1.08147 4.64938
C   0.316283 0.279812 -0.976553
C   0.594184 -2.16772 -1.16891
C   -0.187621 -1.03973 -1.40508
C   -1.27746 -1.28803 -2.17266
C   -2.15134 -0.2026 -2.67688
C   -2.14297 -2.52244 -1.99826
C   0.917285 -0.167129 1.38968
C   1.33916 0.336566 0.0334648
C   2.45913 0.889922 -0.170947
C   2.89272 1.51422 -1.45621
C   3.58915 1.05309 0.828033
C   -1.54699 -0.56441 1.67399
C   -0.458825 0.308189 1.68961
C   -0.781926 1.59935 1.96469
C   -2.02076 2.32297 1.47834
C   0.334698 2.59965 2.15698
H   -1.63572 0.620338 -2.78997
H   -2.53973 -0.379958 -3.5494
H   -2.87455 0.0386059 -2.09375
H   -2.87455 -2.41602 -1.38381
H   -2.55647 -2.83459 -2.8539
H   -1.61898 -3.27443 -1.68019
H   3.70466 1.10275 -1.81473
H   2.21471 1.44328 -2.12618
H   3.10198 2.45776 -1.36091
H   3.88881 0.180492 1.123
H   4.34082 1.52841 0.49866
H   3.26939 1.51422 1.62324
H   -2.33884 2.98274 2.10055
H   -1.92031 2.7841 0.63597
H   -2.75736 1.69867 1.35418
H   1.12655 2.1669 2.41196
H   0.540612 3.08915 1.29807
H   0.122088 3.2878 2.78294
H   0.189051 -3.02613 -0.810428
H   1.42789 -2.11097 -0.614147
H   0.908914 -1.17452 1.37232
H   1.51159 0.0740774 2.07468
H   -1.41808 -1.53633 1.51539
H   -2.37232 -0.365769 1.15889
