47

Au  -1.74741 -0.250449 -2.06947
Au  -0.30079 0.0685121 -0.0254305
P   -0.369551 -2.09508 -2.46087
P   -2.2436 0.76311 1.06427
C   1.26088 -1.48599 -2.13847
C   1.32416 -0.474626 -1.12247
C   2.57177 0.101084 -0.875563
C   3.71392 -0.262908 -1.609
C   3.63061 -1.24007 -2.54118
C   2.39038 -1.86301 -2.80055
C   -0.45392 -2.86867 -4.10073
C   -0.642696 -3.43868 -1.28034
O   -2.78357 -0.319909 -3.92401
O   -4.03012 -1.87359 -3.06267
C   -3.77596 -1.05685 -3.86781
C   -3.14319 1.68571 -0.179105
C   -2.85739 1.34045 -1.54378
C   -3.47434 2.12462 -2.52355
C   -4.33174 3.21415 -2.16297
C   -4.61438 3.46659 -0.868643
C   -4.01747 2.70114 0.13273
O   0.925517 0.510677 1.60382
O   0.0596778 -1.16271 2.71199
C   0.833765 -0.197764 2.62483
C   1.69433 0.209386 3.79618
C   2.05606 -0.759631 4.71785
C   2.90714 -0.401339 5.78911
C   3.31106 0.901541 5.92066
C   2.89448 1.87056 4.99711
C   2.11512 1.48784 3.91036
H   2.65435 0.75969 -0.18987
H   4.54105 0.171684 -1.45453
H   4.40881 -1.51343 -3.02585
H   2.34007 -2.54995 -3.45199
H   0.184544 -3.57507 -4.13986
H   -1.32514 -3.229 -4.22635
H   -0.526161 -3.0913 -0.402298
H   -1.53026 -3.75178 -1.3832
H   -3.32142 1.93025 -3.44186
H   -4.70655 3.76177 -2.84367
H   -5.22194 4.16583 -0.636835
H   -4.21436 2.88404 1.0406
H   1.72903 -1.64991 4.64181
H   3.19747 -1.0588 6.4155
H   3.88065 1.15446 6.6298
H   3.12144 2.78404 5.11192
H   1.88564 2.11338 3.24436
