53

Co  0.370111 2.19215 -0.990484
Co  -0.945417 0.233668 0.0186672
S   1.96048 0.533889 1.29144
O   -1.12845 -0.531764 -1.74693
O   -1.00521 0.0222083 -3.91291
O   3.30209 1.00484 1.01605
O   1.28198 1.22657 2.36856
C   0.951703 0.525535 -0.159776
C   1.59491 0.662679 -1.43489
C   0.628947 0.908251 -2.5015
H   0.999977 1.29688 -3.34472
C   -0.552069 0.0980902 -2.65142
C   -2.28484 -0.65046 -4.11468
H   -2.3416 -1.44252 -3.5228
H   -2.35373 -0.960427 -5.05214
C   -3.41988 0.29406 -3.80778
H   -3.38956 0.545027 -2.86194
H   -4.27378 -0.147656 -4.00081
H   -3.33498 1.09848 -4.36244
C   2.11756 -1.1745 1.78835
C   1.4063 -2.20656 1.23976
H   0.784079 -2.03948 0.54199
C   1.59916 -3.50264 1.70824
H   1.10914 -4.21325 1.31248
C   2.47488 -3.78111 2.72241
C   3.19414 -2.73251 3.24267
H   3.81637 -2.89924 3.94044
C   3.03282 -1.43695 2.77563
H   3.55559 -0.732433 3.13883
C   2.64105 -5.1797 3.25878
H   2.054 -5.30449 4.0327
H   3.57257 -5.31667 3.5306
H   2.40575 -5.82661 2.56242
C   -1.66722 1.06123 1.74283
H   -1.28758 1.83815 2.13384
C   -1.2803 -0.286889 1.99603
H   -0.614412 -0.567095 2.61264
C   -2.04808 -1.13134 1.18051
H   -1.98501 -2.07777 1.13192
C   -2.94442 -0.300812 0.43604
H   -3.57999 -0.607124 -0.199547
C   -2.73459 1.02834 0.791536
H   -3.21369 1.77898 0.460718
C   0.360771 3.7888 0.353773
H   0.524515 3.70909 1.28597
C   -0.905512 3.67829 -0.289485
H   -1.74 3.54027 0.142905
C   -0.705381 3.81073 -1.67723
H   -1.37734 3.76131 -2.34666
C   0.682194 4.03281 -1.89864
H   1.09944 4.15464 -2.74395
C   1.33232 4.03907 -0.642681
H   2.2602 4.18597 -0.495362
