26

Co  -1.21537 3.66035 -1.90385
Co  -2.5309 1.70187 -0.894695
S   0.375005 2.00209 0.378081
O   -2.71393 0.936434 -2.6603
O   -2.59069 1.49041 -4.82627
O   1.71661 2.47304 0.102692
O   -0.303499 2.69477 1.4552
C   -0.633776 1.99373 -1.07314
C   0.00943275 2.13088 -2.34825
C   -0.956533 2.37645 -3.41487
H   -0.585502 2.76508 -4.25808
C   -2.13755 1.56629 -3.56478
C   0.532078 0.293701 0.874991
C   -0.179176 -0.738362 0.326394
H   -0.801401 -0.571283 -0.371373
C   0.0136779 -2.03445 0.794881
H   -0.47634 -2.74505 0.399122
C   0.889402 -2.31291 1.80905
C   1.60866 -1.26431 2.32931
H   2.23089 -1.43105 3.02708
C   1.44734 0.0312471 1.86227
H   1.97011 0.735765 2.22547
C   1.05557 -3.7115 2.34542
H   0.468521 -3.83629 3.11933
H   1.98709 -3.84847 2.61724
H   0.820266 -4.35842 1.64906
