27

C   -1.58349 -4.13329 0.824537
C   -1.67275 -2.11602 2.73029
C   -3.21226 -1.92082 0.67058
C   -0.0564251 0.622253 1.9381
C   -1.79129 0.817166 0.117774
C   2.72697 0.308686 -1.05098
H   3.2816 0.959243 -1.53079
H   2.64356 -0.506908 -1.58844
H   3.1455 0.0927082 -0.192178
C   0.526741 1.435 -2.43981
H   -0.305204 1.95186 -2.39226
H   0.370889 0.61224 -2.9482
H   1.21674 1.96883 -2.88621
C   1.49186 2.63105 -0.0460099
H   1.966 2.49989 0.802083
H   0.668692 3.1387 0.115287
H   2.06478 3.12588 -0.667173
Fe  -1.51054 -2.34354 0.966321
Fe  -0.364398 -0.191625 0.410462
O   -1.63617 -5.27499 0.730706
O   -1.79422 -1.94315 3.8513
O   -4.30761 -1.63818 0.47612
O   0.141866 1.16314 2.94409
O   -2.76519 1.41411 -0.0572691
P   1.07632 1.01502 -0.761462
S   0.725325 -2.01994 1.12802
S   -1.0473 -1.66732 -1.14489
