18

Ir  -1.38589 1.84195 -0.324493
Ir  -0.278999 0.0958209 -2.13498
W   -0.520727 -0.727288 0.511633
O   -0.287402 -2.97228 -1.64487
O   1.0273 3.16559 0.920283
O   -2.2159 4.13464 -2.12124
C   1.66569 -1.49786 0.806971
H   2.11451 -1.90316 0.099495
C   0.831577 -2.13666 1.76782
H   0.64713 -3.04734 1.79805
C   0.868467 0.0582931 2.27309
C   1.67389 -0.166873 1.13211
H   2.14013 0.491947 0.669937
C   -2.15339 0.613704 -2.83312
C   -0.419589 -1.94652 -1.0457
C   -1.95665 -1.88648 1.18099
C   0.140926 2.60684 0.450438
C   -1.89107 3.27567 -1.50641
