28

C   -3.45897 2.04226 -1.049
C   -2.99939 4.18131 0.361998
C   -0.225576 -2.10828 1.06018
C   0.612007 -1.94257 -0.0195641
C   1.44415 -0.854507 0.243709
C   1.1287 -0.317018 1.46802
C   0.0518051 -1.13579 2.00821
C   0.418928 -2.99792 -0.988893
H   1.00904 -2.85946 -1.73322
H   -0.489361 -2.99138 -1.29448
H   0.614726 -3.84504 -0.583028
C   2.53192 -0.554691 -0.736016
H   2.4449 -1.13143 -1.49671
H   3.3831 -0.698602 -0.319464
H   2.46394 0.361111 -1.01726
C   1.86022 0.827734 2.0592
H   1.48222 1.04033 2.91501
H   1.78952 1.58872 1.48114
H   2.78483 0.593332 2.16826
C   -2.0911 -0.854507 -0.43324
C   -0.198382 0.716529 -1.28421
O   -2.6785 5.23339 0.179801
O   -3.35292 1.75226 -2.10265
O   0.0681216 1.28563 -2.22877
O   -2.99939 -1.34293 -0.840758
Fe  -3.62975 2.52208 0.67933
Fe  -0.540486 -0.234814 0.180112
Br  -1.4243 1.72424 1.32229
