100

Ir  0.121554 -1.74049 -0.984885
Ir  0.515316 1.15458 -0.492551
H   1.19347 -0.415611 -0.521995
C   -0.751585 -0.599314 -2.40768
O   -0.558029 0.651765 -2.42504
P   -1.54968 -3.17232 -1.64043
C   -1.60537 -1.17313 -3.45741
O   1.30747 -2.38446 -3.56974
P   1.41209 -2.98281 0.549151
C   -2.00792 -2.51774 -3.23767
O   1.00942 0.708943 2.29834
P   2.55217 2.11996 -1.30092
C   -2.76789 -3.13657 -4.23694
H   -3.03626 -4.01941 -4.11955
O   -1.23488 -0.898498 0.50093
P   -0.652907 3.08521 -0.0416196
C   -3.12057 -2.48969 -5.36652
H   -3.61099 -2.93357 -6.02011
C   -2.75958 -1.17102 -5.55601
H   -3.01726 -0.727455 -6.33111
C   -2.02217 -0.516391 -4.6064
H   -1.79774 0.378393 -4.73167
C   -1.34294 -4.9446 -1.90514
C   -0.567529 -5.4019 -2.98039
H   -0.189916 -4.77902 -3.55934
C   -0.345474 -6.74431 -3.2111
H   0.21382 -7.01551 -3.90277
C   -0.957015 -7.68297 -2.40741
H   -0.863206 -8.59074 -2.5885
C   -1.7063 -7.25881 -1.33942
H   -2.09341 -7.89611 -0.783587
C   -1.90698 -5.91446 -1.0546
H   -2.40809 -5.65862 -0.313827
C   1.27897 -2.64382 -2.35394
C   2.84048 -2.21635 1.38373
C   3.18366 -2.44237 2.67665
H   2.66236 -3.01065 3.19514
C   4.31531 -1.82934 3.24753
H   4.54686 -2.00021 4.13253
C   5.06697 -0.982393 2.48612
H   5.80557 -0.562785 2.86474
C   4.75942 -0.739061 1.1853
H   5.2819 -0.166236 0.671923
C   3.6432 -1.36662 0.638994
H   3.42946 -1.21057 -0.253719
C   0.492873 -3.85897 1.85273
C   0.112886 -5.17831 1.72835
H   0.43825 -5.687 1.02168
C   -0.755147 -5.75342 2.6507
H   -1.02945 -6.63705 2.55155
C   -1.20044 -5.00844 3.70513
H   -1.76686 -5.39395 4.33252
C   -0.820458 -3.69223 3.84828
H   -1.11495 -3.19223 4.57721
C   1.4464 1.26464 1.30232
C   -0.00348519 -3.13087 2.90594
H   0.220945 -2.23139 2.97808
C   2.72767 2.04152 1.3925
C   3.35228 2.5526 0.275701
C   4.51124 3.32494 0.410354
H   4.92922 3.67641 -0.341834
C   5.02778 3.56032 1.66549
H   5.80438 4.0627 1.7628
C   4.38537 3.04215 2.78898
H   4.72498 3.22213 3.63476
C   3.27984 2.28639 2.66241
H   2.87967 1.92165 3.41987
C   -1.0247 0.326944 0.532502
C   -1.95211 1.17656 1.36124
C   -1.84405 2.5483 1.22129
C   -2.65033 3.37911 2.01234
H   -2.56959 4.30344 1.94875
C   -3.55755 2.82787 2.88414
H   -4.10735 3.38124 3.3892
C   -3.65967 1.45692 3.01509
H   -4.26528 1.09214 3.61814
C   -2.86645 0.626232 2.2516
H   -2.94245 -0.297146 2.33445
C   0.101011 4.55927 0.708626
C   0.632993 4.47167 2.00764
H   0.603307 3.66444 2.4675
C   1.19704 5.58088 2.59822
H   1.52953 5.52848 3.46594
C   1.26591 6.74632 1.91514
H   1.67202 7.48451 2.30682
C   0.745802 6.85117 0.6553
H   0.780238 7.66875 0.214332
C   0.178196 5.77373 0.036449
H   -0.15548 5.85291 -0.828263
C   -1.62199 3.7221 -1.45287
C   -1.14107 3.61292 -2.73468
H   -0.327662 3.18829 -2.89076
C   -1.85474 4.12329 -3.78357
H   -1.52581 4.04787 -4.64946
C   -3.08376 4.76296 -3.55754
H   -3.57893 5.08849 -4.27302
C   -3.54449 4.90241 -2.28764
H   -4.34246 5.35323 -2.12905
C   -2.83439 4.3784 -1.23918
H   -3.1645 4.46181 -0.373297
