108

Co  1.65107 0.403449 -1.81018
Co  -1.65107 -0.403449 1.81018
O   2.33518 -1.04683 -5.33172
O   -2.33518 1.04683 5.33172
O   2.83256 1.1537 -5.26364
O   -2.83256 -1.1537 5.26364
C   3.00219 -0.0540077 -3.29165
C   -3.00219 0.0540077 3.29165
C   2.85783 -1.17783 -2.41553
C   -2.85783 1.17783 2.41553
H   2.55306 -2.07413 -2.66951
H   -2.55306 2.07413 2.66951
C   3.23878 -0.764152 -1.1204
C   -3.23878 0.764151 1.1204
H   3.22942 -1.32261 -0.315272
H   -3.22942 1.32261 0.315272
C   3.61038 0.600979 -1.17263
C   -3.61038 -0.600979 1.17263
H   3.91514 1.14221 -0.414545
H   -3.91514 -1.14221 0.414545
C   3.4727 1.05028 -2.50392
C   -3.4727 -1.05028 2.50392
H   3.67855 1.95002 -2.83576
H   -3.67855 -1.95002 2.83576
C   0.0360904 0.365414 -0.615157
C   -0.0360904 -0.365414 0.615157
C   0.445115 1.73629 -0.971627
C   -0.445115 -1.73629 0.971627
C   0.0761909 1.47659 -2.36117
C   -0.0761909 -1.47659 2.36117
C   -0.300754 0.0930771 -2.01809
C   0.300754 -0.0930771 2.01809
C   2.68807 -0.0654987 -4.71662
C   -2.68807 0.0654987 4.71662
C   2.47286 1.2801 -6.66396
C   -2.47286 -1.2801 6.66396
H   3.18799 0.945709 -7.20959
H   -3.18799 -0.945709 7.20959
H   2.31647 2.20397 -6.87104
H   -2.31647 -2.20397 6.87104
H   1.6762 0.773344 -6.83529
H   -1.6762 -0.773344 6.83529
C   0.668341 2.9348 -0.137558
C   -0.668341 -2.9348 0.137558
C   -0.418382 3.43581 0.578344
C   0.418382 -3.43581 -0.578344
H   -1.24579 3.02328 0.485521
H   1.24579 -3.02328 -0.485521
C   -0.303427 4.52975 1.42202
C   0.303427 -4.52975 -1.42202
H   -1.05197 4.85839 1.86594
H   1.05197 -4.85839 -1.86594
C   0.915627 5.12039 1.59641
C   -0.915627 -5.12039 -1.59641
H   1.00652 5.84432 2.17344
H   -1.00652 -5.84432 -2.17344
C   2.00636 4.63777 0.911993
C   -2.00636 -4.63777 -0.911993
H   2.83911 5.03421 1.03892
H   -2.83911 -5.03421 -1.03892
C   1.88205 3.56336 0.0318911
C   -1.88205 -3.56336 -0.0318911
H   2.62391 3.26804 -0.444587
H   -2.62391 -3.26804 0.444587
C   -0.00133668 2.28786 -3.56881
C   0.00133668 -2.28786 3.56881
C   0.52799 3.5737 -3.60297
C   -0.52799 -3.5737 3.60297
H   0.947708 3.91498 -2.84693
H   -0.947708 -3.91498 2.84693
C   0.441105 4.35509 -4.74566
C   -0.441105 -4.35509 4.74566
H   0.793989 5.21462 -4.75131
H   -0.793989 -5.21462 4.75131
C   -0.169759 3.85178 -5.87422
C   0.169759 -3.85178 5.87422
H   -0.219216 4.37347 -6.64207
H   0.219216 -4.37347 6.64207
C   -0.708442 2.58547 -5.87648
C   0.708442 -2.58548 5.87648
H   -1.12148 2.25568 -6.64162
H   1.12148 -2.25568 6.64162
C   -0.633587 1.79949 -4.72687
C   0.633587 -1.79949 4.72687
H   -1.00519 0.946858 -4.72602
H   1.00519 -0.946858 4.72602
C   -1.14019 -0.916982 -2.68169
C   1.14019 0.916982 2.68169
C   -0.696411 -1.79834 -3.64899
C   0.696411 1.79834 3.64899
H   0.195156 -1.7857 -3.91207
H   -0.195156 1.7857 3.91207
C   -1.57996 -2.71188 -4.2381
C   1.57996 2.71188 4.2381
H   -1.27118 -3.314 -4.87473
H   1.27118 3.314 4.87473
C   -2.90862 -2.71532 -3.87086
C   2.90862 2.71532 3.87086
H   -3.49141 -3.32779 -4.2583
H   3.49141 3.32779 4.2583
C   -3.37913 -1.82477 -2.93938
C   3.37913 1.82477 2.93938
H   -4.28139 -1.81673 -2.71118
H   4.28139 1.81673 2.71118
C   -2.49559 -0.934218 -2.34194
C   2.49559 0.934218 2.34194
H   -2.81238 -0.336686 -1.703
H   2.81238 0.336686 1.703
