39

Ni  4.91257 -1.77636e-15 3.2581
Ni  -0.306918 -1.77636e-15 -0.096277
Cl  0.690187 -1.77636e-15 -2.20979
S   1.15975 -1.66785 0.811064
S   1.15975 1.66785 0.811064
S   3.7023 -1.55307 2.36071
S   3.7023 1.55307 2.36071
S   6.11086 1.52463 4.18365
S   6.11086 -1.52463 4.18365
S   8.54159 1.69435 5.88231
S   8.54159 -1.69435 5.88231
O   -1.63726 -1.50154 -0.463031
O   -1.63726 1.50154 -0.463031
N   -2.6469 -3.06109 -1.69208
N   -2.6469 3.06109 -1.69208
C   2.42745 -0.680243 1.57011
C   2.42745 0.680243 1.57011
C   7.37097 0.68138 5.03999
C   7.37097 -0.68138 5.03999
C   -1.96252 -1.94063 -1.52892
C   -1.96252 1.94063 -1.52892
H   -1.71741 -1.46514 -2.28924
H   -1.71741 1.46514 -2.28924
C   -2.99942 -3.85395 -0.554813
C   -2.99942 3.85395 -0.554813
H   -3.21011 -3.2795 0.183609
H   -3.21011 3.2795 0.183609
H   -2.26133 -4.42044 -0.320134
H   -2.26133 4.42044 -0.320134
H   -3.76229 -4.39542 -0.767958
H   -3.76229 4.39542 -0.767958
C   -2.8989 -3.62872 -3.00634
C   -2.8989 3.62872 -3.00634
H   -2.54638 -3.04403 -3.68058
H   -2.54638 3.04403 -3.68058
H   -3.84492 -3.7311 -3.13406
H   -3.84492 3.7311 -3.13406
H   -2.4734 -4.48642 -3.07031
H   -2.4734 4.48642 -3.07031
