60

Nd  1.45286 -1.04599 0.729829
Nd  -1.45286 1.04599 -0.729829
O   -0.625407 -0.0175231 1.26097
O   0.625407 0.0175231 -1.26097
O   2.92265 0.534742 1.42249
O   -2.92265 -0.534742 -1.42249
O   -0.530224 2.9974 -0.276821
O   0.530224 -2.9974 0.276821
O   3.55572 -2.41356 0.0662291
O   -3.55572 2.41356 -0.0662291
O   1.46191 -1.61886 3.16511
O   -1.46191 1.61886 -3.16511
C   -1.16152 0.67146 2.3182
C   1.16152 -0.67146 -2.3182
C   -2.31244 0.232229 3.02084
C   2.31244 -0.232229 -3.02084
C   -2.7754 1.04965 4.04996
C   2.7754 -1.04965 -4.04996
H   -3.51284 0.754839 4.53424
H   3.51284 -0.754839 -4.53424
C   -2.22056 2.27183 4.40648
C   2.22056 -2.27183 -4.40648
C   -1.1144 2.67891 3.683
C   1.1144 -2.67891 -3.683
H   -0.737436 3.50846 3.86776
H   0.737436 -3.50846 -3.86776
C   -0.54542 1.89076 2.68913
C   0.54542 -1.89076 -2.68913
C   0.709164 3.77535 1.59153
C   -0.709164 -3.77535 -1.59153
C   0.0306283 4.02549 0.370281
C   -0.0306283 -4.02549 -0.370281
C   -0.0141362 5.34819 -0.131872
C   0.0141362 -5.34819 0.131872
C   0.534818 6.36761 0.651557
C   -0.534818 -6.36761 -0.651557
H   0.485341 7.24029 0.333909
H   -0.485341 -7.24029 -0.333909
C   1.14856 6.14847 1.87491
C   -1.14856 -6.14847 -1.87491
C   1.23809 4.82924 2.31121
C   -1.23809 -4.82924 -2.31121
H   1.66924 4.65227 3.11657
H   -1.66924 -4.65227 -3.11657
C   1.96257 2.0398 2.99214
C   -1.96257 -2.0398 -2.99214
C   1.99438 2.53353 4.29213
C   -1.99438 -2.53353 -4.29213
H   1.22631 2.92885 4.63648
H   -1.22631 -2.92885 -4.63648
C   3.12409 2.46286 5.10281
C   -3.12409 -2.46286 -5.10281
C   4.26676 1.9622 4.5091
C   -4.26676 -1.9622 -4.5091
H   5.05839 1.9853 4.99756
H   -5.05839 -1.9853 -4.99756
C   4.30328 1.42149 3.21872
C   -4.30328 -1.42149 -3.21872
C   3.08875 1.31211 2.49964
C   -3.08875 -1.31211 -2.49964
