68

Ir  0.276269 -1.00884 0.916278
Ir  -0.0288063 1.31521 -0.773094
Cl  2.61128 -0.5949 1.48657
P   -0.247796 0.414851 2.70884
P   1.0192 2.58018 0.912505
P   1.99484 0.708678 -1.82539
P   1.14229 -2.12411 -0.955358
O   -2.48527 -0.869724 -0.278893
O   -0.422485 -3.51772 2.42782
O   -1.46961 0.836787 -3.4063
O   -2.53687 2.93004 -0.192265
C   -1.39284 -0.736379 0.091493
C   -0.0776385 -2.66533 1.98302
C   -0.912066 0.941472 -2.42727
C   -1.59169 2.31657 -0.347589
C   2.8309 2.79935 0.822234
C   3.55332 1.43764 -1.21076
C   2.37908 -1.09836 -1.81851
C   0.104853 -0.201218 4.39538
C   -0.683007 0.236454 5.46582
C   -0.362074 -0.143131 6.75995
C   0.719032 -0.96709 7.01522
C   1.49179 -1.45011 5.94657
C   1.17967 -1.04252 4.6269
C   -2.00702 0.858788 2.78706
C   -2.50289 2.14078 2.82365
C   -3.88227 2.35107 2.89332
C   -4.75698 1.27403 2.90297
C   -4.26362 0.00936918 2.88218
C   -2.8943 -0.21826 2.80743
C   2.0745 1.18649 -3.58371
C   2.90893 0.475552 -4.48494
C   3.0222 0.901006 -5.79754
C   2.37656 2.00682 -6.21898
C   1.58492 2.74714 -5.33144
C   1.42383 2.3443 -4.00713
C   -0.122947 -2.59206 -2.16545
C   -1.16252 -3.4133 -1.72002
C   -2.22475 -3.71727 -2.51959
C   -2.30404 -3.19873 -3.79451
C   -1.23803 -2.40011 -4.28533
C   -0.179582 -2.07615 -3.44999
H   3.06877 3.64494 1.27933
H   3.26133 2.05992 1.31805
H   3.93844 0.831476 -0.528491
H   4.19644 1.4891 -1.96074
H   2.45207 -1.41159 -2.75607
H   3.26007 -1.2346 -1.38845
H   -1.43563 0.794164 5.30746
H   -0.893187 0.168197 7.48471
H   0.938022 -1.20414 7.90788
H   2.21546 -2.04386 6.10667
H   1.70952 -1.34585 3.89955
H   -1.90885 2.88148 2.7998
H   -4.2246 3.23727 2.93342
H   -5.69586 1.42087 2.925
H   -4.86144 -0.72867 2.91998
H   -2.56204 -1.10714 2.76837
H   3.38844 -0.289152 -4.18849
H   3.55961 0.40836 -6.4066
H   2.45962 2.28558 -7.12273
H   1.15072 3.5359 -5.63634
H   0.885162 2.84627 -3.40738
H   -1.12854 -3.76791 -0.839244
H   -2.91318 -4.28743 -2.19677
H   -3.06295 -3.37299 -4.33794
H   -1.24936 -2.08947 -5.18279
H   0.507593 -1.49799 -3.75935
