32

Mn  -1.86735 -0.691851 -1.00467
Mn  1.77631 -1.12773 -0.770578
Mn  0.306657 2.18135 -0.34454
Mn  -0.188211 -0.393634 2.20392
S   -0.22501 -1.80571 0.311726
S   0.162912 0.286888 -1.75272
S   1.5377 0.552777 0.895164
S   -1.42423 0.917466 0.677466
O   -2.12303 -2.90632 -2.94732
O   -4.24663 -1.61937 0.484825
O   -3.41118 1.04115 -2.8237
O   3.61338 -2.72052 0.91498
O   1.65518 -3.28263 -2.78818
O   3.95607 0.136145 -2.29254
O   -1.33683 3.77958 -2.20287
O   0.196836 4.32226 1.70257
O   2.64895 3.21039 -1.81422
O   -2.62422 -1.55617 3.41664
O   -0.0649731 1.72912 4.25339
O   1.65538 -2.03201 3.83791
C   -1.99979 -2.04981 -2.21413
C   -3.32225 -1.29609 -0.107116
C   -2.84118 0.38024 -2.07919
C   2.89906 -2.11701 0.264476
C   1.68777 -2.43484 -2.01437
C   3.12714 -0.349864 -1.66644
C   -0.730995 3.16263 -1.45146
C   0.277142 3.49136 0.924327
C   1.76251 2.82119 -1.21018
C   -1.67013 -1.11629 2.94741
C   -0.119596 0.906932 3.45325
C   0.932622 -1.41959 3.19618
