38

Mn  -3.73444 0.491596 -0.652365
Mn  3.73444 -0.491596 0.652365
P   -2.10023 -0.995226 -0.514813
P   2.10023 0.995226 0.514813
O   -3.45736 0.667524 2.26351
O   3.45736 -0.667524 -2.26351
O   -5.89791 -1.48396 -0.888866
O   5.89791 1.48396 0.888866
C   -5.35006 1.94197 -0.977134
C   5.35006 -1.94197 0.977134
H   -5.68937 2.03287 -1.90255
H   5.68937 -2.03287 1.90255
H   -6.05799 1.98439 -0.284489
H   6.05799 -1.98439 0.284489
C   -4.15627 2.56966 -0.686632
C   4.15627 -2.56966 0.686632
H   -4.11569 3.03459 0.198238
H   4.11569 -3.03459 -0.198238
C   -2.90725 2.33504 -1.31519
C   2.90725 -2.33504 1.31519
H   -2.08884 2.6649 -0.844295
H   2.08884 -2.6649 0.844295
C   -2.7235 1.33938 -2.31628
C   2.7235 -1.33938 2.31628
H   -1.78335 1.03202 -2.46566
H   1.78335 -1.03202 2.46566
C   -3.7403 0.515145 -2.84713
C   3.7403 -0.515145 2.84713
H   -3.45172 -0.314282 -3.30499
H   3.45172 0.314282 3.30499
H   -4.50122 0.970551 -3.28679
H   4.50122 -0.970551 3.28679
C   -3.60052 0.60865 1.13587
C   3.60052 -0.60865 -1.13587
C   -5.03667 -0.732458 -0.770856
C   5.03667 0.732458 0.770856
C   -0.509529 -0.291771 -0.124726
C   0.509529 0.291771 0.124726
