24

Dy  0.0711057 1.72314 -3.91338
Dy  -0.0711057 -1.72314 3.91338
Cl  -1.22575 -0.123596 -5.17798
Cl  1.22575 0.123596 5.17798
Cl  1.23873 3.70023 -2.68632
Cl  -1.23873 -3.70023 2.68632
O   1.20413 0.373488 -2.37697
O   -1.20413 -0.373488 2.37697
O   2.00169 0.869971 -5.04026
O   -2.00169 -0.869971 5.04026
O   -1.19029 1.33496 -1.99518
O   1.19029 -1.33496 1.99518
O   -1.91951 3.0299 -4.08904
O   1.91951 -3.0299 4.08904
O   0.375424 3.18139 -5.82991
O   -0.375424 -3.18139 5.82991
C   -0.701542 0.694477 -1.00998
C   0.701542 -0.694477 1.00998
C   -1.36675 0.472484 0.184498
C   1.36675 -0.472484 -0.184498
H   -2.24568 0.7583 0.291071
H   2.24568 -0.7583 -0.291071
C   0.715383 0.173994 -1.21962
C   -0.715383 -0.173994 1.21962
