42

Fe  1.86757 -0.291339 1.4282
Fe  -0.774025 -0.323003 2.21425
P   3.9183 -0.468242 0.577276
P   -2.89348 0.15826 2.71984
O   2.4621 1.9476 3.22285
O   2.30207 -2.63834 3.11615
O   -0.713877 -3.08943 3.1731
O   0.0801513 0.902354 4.73292
C   0.654138 -1.25937 -0.109462
C   1.34012 -0.0792162 -0.505068
C   0.903845 1.1045 0.15655
C   -0.482269 1.17872 0.640839
C   -1.37577 0.112027 0.33325
C   -0.765043 -1.16335 0.253867
C   2.38889 -0.0645317 -1.56282
C   3.73404 -0.114436 -1.19596
C   4.72743 0.0241492 -2.17488
H   5.6257 0.0254111 -1.93147
C   4.36532 0.159752 -3.51021
H   5.02286 0.270918 -4.1596
C   3.02207 0.129924 -3.88274
H   2.78842 0.181434 -4.78188
C   2.03277 0.0225431 -2.91324
H   1.13641 0.00820269 -3.16131
C   -2.82462 0.324723 0.0552976
C   -3.72003 0.417649 1.12091
C   -5.08668 0.603386 0.863887
H   -5.68938 0.666713 1.56755
C   -5.53479 0.69287 -0.447697
H   -6.44054 0.820442 -0.618365
C   -4.63898 0.592716 -1.50779
H   -4.94774 0.652946 -2.38309
C   -3.28566 0.403882 -1.26299
H   -2.68881 0.330574 -1.97283
C   2.23321 1.04587 2.53611
C   2.09713 -1.70909 2.46403
C   -0.741365 -1.99211 2.82223
C   -0.218409 0.456655 3.70843
H   1.35005 1.95849 -0.0246443
H   0.952698 -2.10844 -0.450892
H   -0.884386 2.0388 0.763237
H   -1.29943 -1.93062 0.0861702
