10

Cr  0.527131 1.11035 -1.0281
Cr  -0.527131 -1.11035 1.0281
O   0.103798 0.8713 -2.34516
O   -0.103798 -0.8713 2.34516
O   -0.00814102 2.36227 -0.548934
O   0.00814102 -2.36227 0.548934
O   2.11056 1.16644 -1.00925
O   -2.11056 -1.16644 1.00925
O   0.322588 0.344522 0.567845
O   -0.322588 -0.344522 -0.567845
