39

W   -0.922353 3.55946 0.10055
W   -0.922353 -3.55946 0.10055
W   -0.835278 -1.67711 -3.15162
W   -0.835278 1.67711 -3.15162
W   -1.01174 1.87687 3.00133
W   -1.01174 -1.87687 3.00133
W   2.07367 -7.04637e-16 2.00243
W   2.15972 -1.68037 -0.902199
W   2.15972 1.68037 -0.902199
O   -1.10524 2.88144 -1.68009
O   -1.10524 -2.88144 -1.68009
O   -0.58638 5.23049 -0.230656
O   -0.58638 -5.23049 -0.230656
O   -0.41942 6.11589e-16 -4.0248
O   -0.473361 -2.75984 -4.42199
O   -0.473361 2.75984 -4.42199
O   -1.28761 8.0966e-16 3.28321
O   -0.740496 2.42171 4.62213
O   -0.740496 -2.42171 4.62213
O   3.19718 -1.91971e-16 3.35368
O   2.90179 1.3332 0.855215
O   2.90179 -1.3332 0.855215
O   0.965058 -2.80432 -0.126554
O   0.965058 2.80432 -0.126554
O   3.33845 -2.79246 -1.53114
O   3.33845 2.79246 -1.53114
O   2.95573 -3.10712e-16 -1.46067
O   -2.62072 -1.38066 -3.39858
O   -2.62072 1.38066 -3.39858
O   -0.583811 3.5295 1.98433
O   -0.583811 -3.5295 1.98433
O   -2.72089 3.57993 0.344311
O   -2.72089 -3.57993 0.344311
O   0.926529 -1.56307 -2.36236
O   0.926529 1.56307 -2.36236
O   0.854608 1.2724 2.54648
O   0.854608 -1.2724 2.54648
O   -2.80565 2.18444 2.77391
O   -2.80565 -2.18444 2.77391
