36

V   -0.180013 2.11234 -1.63357
V   0.180013 -2.11234 1.63357
V   0.958847 2.16975 1.00739
V   -0.958847 -2.16975 -1.00739
V   -2.56335 0.268119 -2.25819
V   2.56335 -0.268119 2.25819
V   -1.50348 0.322505 0.613924
V   1.50348 -0.322505 -0.613924
V   0.239712 -0.352555 -3.41352
V   -0.239712 0.352555 3.41352
O   -0.17634 -3.67841 1.76827
O   0.17634 3.67841 -1.76827
O   1.91586 -2.00596 2.19208
O   -1.91586 2.00596 -2.19208
O   0.565756 1.44581 -3.16088
O   -0.565756 -1.44581 3.16088
O   0.784344 -2.07685 -0.272959
O   -0.784344 2.07685 0.272959
O   -1.45939 -1.5619 0.608493
O   1.45939 1.5619 -0.608493
O   -1.2904 -3.7219 -1.06714
O   1.2904 3.7219 1.06714
O   -0.106539 -2.09011 -2.82045
O   0.106539 2.09011 2.82045
O   -2.56335 -1.51799 -1.84049
O   2.56335 1.51799 1.84049
O   4.00254 -0.504243 2.85947
O   -4.00254 0.504243 -2.85947
O   -1.52185 -0.0607629 -3.7623
O   1.52185 0.0607629 3.7623
O   2.91236 -0.554199 0.290004
O   -2.91236 0.554199 -0.290004
O   1.91402 -0.577676 -2.2278
O   -1.91402 0.577676 2.2278
O   0.853227 -0.648559 -4.85244
O   -0.853227 0.648559 4.85244
