24

V   1.50761 1.0967 1.23026
V   0.195967 -1.85398 1.23026
V   -1.70358 0.757277 1.23026
V   -1.50761 -1.0967 -1.23026
V   -0.195967 1.85398 -1.23026
V   1.70358 -0.757277 -1.23026
O   2.55759 1.90991 2.24139
O   0.375232 -3.16989 2.24139
O   -2.93282 1.25999 2.24139
O   -2.55759 -1.90991 -2.24139
O   -0.375232 3.16989 -2.24139
O   2.93282 -1.25999 -2.24139
O   -1.19028 -0.905776 2.22134
O   -0.189286 1.4837 2.22134
O   1.37956 -0.577922 2.22134
O   1.19028 0.905776 -2.22134
O   0.189286 -1.4837 -2.22134
O   -1.37956 0.577922 -2.22134
O   -2.63887 -0.372853 0.0200508
O   0.996537 2.47176 0.0200508
O   1.64234 -2.09891 0.0200508
O   2.63887 0.372853 -0.0200508
O   -0.996537 -2.47176 -0.0200508
O   -1.64234 2.09891 -0.0200508
