42

Eu  0.384529 -3.87038 -0.23938
W   -1.27667 2.07359 -2.59291
W   -1.2292 -1.30405 -2.79937
W   1.44443 0.229322 -3.44455
W   -2.60728 -1.31198 0.867545
W   -2.43733 2.07811 0.986205
W   -0.769524 0.262782 3.2167
W   0.748125 3.73188 0.164839
W   2.244 1.90412 2.50769
W   3.25251 -1.88325 -0.958173
W   2.03632 -1.87571 2.40675
O   -2.15646 3.32637 -3.49982
O   -2.52086 -2.1965 -3.62257
O   2.33619 0.268617 -4.95005
O   -4.09129 -2.20342 1.04262
O   -3.66106 3.32868 0.876676
O   -1.17377 0.337797 4.97609
O   0.64774 5.48018 -0.098531
O   3.24835 2.43626 3.767
O   4.77411 -2.27951 -1.62431
O   3.10494 -2.2357 3.70229
O   0.0299129 -0.962787 -3.89914
O   -0.92692 3.18571 0.72472
O   -3.4965 0.598375 0.902878
O   -2.23851 2.06268 -0.959944
O   0.511856 1.76752 -3.76424
O   2.35029 -3.504 -1.06405
O   -2.21523 -0.907443 2.77243
O   -0.117726 3.17648 -1.60721
O   -1.93077 1.67758 2.81644
O   1.65206 3.66074 1.90073
O   -2.1306 0.575315 -3.18628
O   0.577682 -1.11037 2.91412
O   -1.39711 -2.60235 0.577017
O   1.22466 -3.40484 2.00218
O   -0.348118 -2.60235 -1.96095
O   -2.47854 -1.0066 -1.00508
O   2.55365 0.137175 2.49068
O   2.35687 -1.07809 -2.44356
O   0.44838 1.48618 3.04768
O   3.63226 -2.08812 0.9476
O   -0.355406 -5.35802 -1.89077
