46

W   -0.629677 1.32065 3.81004
Co  2.37711 -1.04398 1.71031
Co  1.67839 0.864036 0.128764
Co  -0.725905 -1.84374 -1.942
Co  0.246993 -0.0365703 -3.43638
Co  -1.77274 0.472366 -1.98409
P   1.13463 0.668382 2.22585
P   0.225766 -0.0120345 -1.24438
O   -2.65507 2.31408 6.02924
O   -2.41026 -1.25713 3.15693
O   -2.20365 2.89049 1.52669
O   1.18557 3.85118 4.4243
O   0.874247 -0.401089 6.00879
O   0.26822 -3.03417 1.91825
O   3.70202 -1.98238 4.13495
O   4.21571 -2.01395 -0.392654
O   0.505961 3.52012 -0.0240758
O   3.81594 0.846446 -1.89454
O   -2.13714 -2.84745 0.433934
O   1.63629 -3.5736 -1.93897
O   -2.41096 -3.05763 -4.05501
O   2.81049 -1.36718 -3.95135
O   -1.19183 -0.644642 -5.96705
O   1.13958 2.73083 -3.77909
O   -3.21935 0.109472 0.543664
O   -1.7126 3.39835 -2.14409
O   -3.85722 -0.00599079 -4.05817
C   -1.94822 1.94785 5.21926
C   -1.77062 -0.346064 3.38088
C   -1.63194 2.34205 2.3445
C   0.51056 2.95454 4.20489
C   0.33933 0.230346 5.24054
C   1.05927 -2.23586 1.76748
C   3.20213 -1.60803 3.19887
C   3.51345 -1.61976 0.402529
C   0.979674 2.48998 0.0223184
C   3.02453 0.840132 -1.09691
C   -1.58312 -2.45145 -0.488881
C   0.716814 -2.916 -1.93907
C   -1.76814 -2.58856 -3.26226
C   1.8192 -0.860232 -3.76964
C   -0.657272 -0.413717 -4.99969
C   0.783325 1.661 -3.66499
C   -2.68444 0.264624 -0.451409
C   -1.72428 2.27349 -2.07755
C   -3.07077 0.170811 -3.27072
