48

W   -2.81364 -0.37662 -0.37662
W   2.81364 0.37662 -0.37662
W   2.81364 -0.37662 0.37662
W   -2.81364 0.37662 0.37662
W   -0.37662 -2.81364 -0.37662
W   -0.37662 2.81364 0.37662
W   0.37662 2.81364 -0.37662
W   0.37662 -2.81364 0.37662
W   -0.37662 -0.37662 -2.81364
W   0.37662 -0.37662 2.81364
W   -0.37662 0.37662 2.81364
W   0.37662 0.37662 -2.81364
O   1.46013 1.46013 0.13906
O   -1.46013 -1.46013 0.13906
O   1.46013 -1.46013 -0.13906
O   -1.46013 1.46013 -0.13906
O   1.46013 -0.13906 -1.46013
O   -1.46013 -0.13906 1.46013
O   -1.46013 0.13906 -1.46013
O   1.46013 0.13906 1.46013
O   -0.13906 1.46013 -1.46013
O   -0.13906 -1.46013 1.46013
O   0.13906 1.46013 1.46013
O   0.13906 -1.46013 -1.46013
O   -1.70348 -1.70348 0.417179
O   1.70348 1.70348 0.417179
O   1.70348 -1.70348 -0.417179
O   -1.70348 1.70348 -0.417179
O   0.417179 -1.70348 -1.70348
O   0.417179 1.70348 1.70348
O   -0.417179 1.70348 -1.70348
O   -0.417179 -1.70348 1.70348
O   -1.70348 0.417179 -1.70348
O   1.70348 0.417179 1.70348
O   -1.70348 -0.417179 1.70348
O   1.70348 -0.417179 -1.70348
O   -3.05931 0.811181 0.811181
O   3.05931 -0.811181 0.811181
O   3.05931 0.811181 -0.811181
O   -3.05931 -0.811181 -0.811181
O   0.811181 -3.05931 0.811181
O   0.811181 3.05931 -0.811181
O   -0.811181 3.05931 0.811181
O   -0.811181 -3.05931 -0.811181
O   0.811181 0.811181 -3.05931
O   -0.811181 0.811181 3.05931
O   0.811181 -0.811181 3.05931
O   -0.811181 -0.811181 -3.05931
