129

Nd  3.08061 -2.7099 -0.458016
Nd  -3.08061 -2.7099 0.458016
Nd  1.8792 2.63993 2.47943
Nd  -1.8792 2.63993 -2.47943
Mo  7.10543e-15 -0.0347633 5.05113e-31
Mo  0.398684 -3.62568 2.45103
Mo  -0.398684 -3.62568 -2.45103
Mo  -4.14137 1.25496 0.557954
Mo  4.14137 1.25496 -0.557954
Mo  2.52137 -1.33465 3.31187
Mo  -2.52137 -1.33465 -3.31187
Mo  -1.99636 3.52838 1.42105
Mo  1.99636 3.52838 -1.42105
Mo  -7.10416 1.11658 1.68368
Mo  7.10416 1.11658 -1.68368
Mo  -1.38934 -3.35506 6.21635
Mo  1.38934 -3.35506 -6.21635
Mo  -0.593181 -5.92487 4.44283
Mo  0.593181 -5.92487 -4.44283
Mo  -5.51928 1.14327 4.473
Mo  5.51928 1.14327 -4.473
Mo  -3.3883 3.47416 5.28525
Mo  3.3883 3.47416 -5.28525
Mo  -2.65738 5.96063 3.34598
Mo  2.65738 5.96063 -3.34598
Mo  0.761895 -1.06586 7.0619
Mo  -0.761895 -1.06586 -7.0619
Mo  3.85672 -1.17721 6.20594
Mo  -3.85672 -1.17721 -6.20594
O   0.697351 -1.7679 2.82727
O   -0.697351 -1.7679 -2.82727
O   -3.08011 3.85076 3.19376
O   3.08011 3.85076 -3.19376
O   -2.29278 5.4784 1.51494
O   2.29278 5.4784 -1.51494
O   1.92421 -1.60653 5.33403
O   -1.92421 -1.60653 -5.33403
O   -1.93286 -3.33579 7.84252
O   1.93286 -3.33579 -7.84252
O   4.1668 -1.55027 4.33444
O   -4.1668 -1.55027 -4.33444
O   1.33068 -3.73485 0.987443
O   -1.33068 -3.73485 -0.987443
O   -0.496625 3.43251 2.24014
O   0.496625 3.43251 -2.24014
O   3.99376 0.519165 6.11642
O   -3.99376 0.519165 -6.11642
O   0.436061 -5.54566 2.85535
O   -0.436061 -5.54566 -2.85535
O   -0.811558 -1.51407 6.03816
O   0.811558 -1.51407 -6.03816
O   -1.72175 3.34747 5.66159
O   1.72175 3.34747 -5.66159
O   2.33258 0.368264 3.40531
O   -2.33258 0.368264 -3.40531
O   4.06125 -0.441193 -0.773073
O   -4.06125 -0.441193 0.773073
O   3.25488 -1.64491 1.77941
O   -3.25488 -1.64491 -1.77941
O   3.49714 -4.93028 -1.5097
O   -3.49714 -4.93028 1.5097
O   -5.1341 1.60557 2.38686
O   5.1341 1.60557 -2.38686
O   -2.50908 1.70762 1.51517
O   2.50908 1.70762 -1.51517
O   -7.27114 1.33647 3.56898
O   7.27114 1.33647 -3.56898
O   1.23897 -3.48974 -1.9419
O   -1.23897 -3.48974 1.9419
O   -7.13617 -0.585552 1.59937
O   7.13617 -0.585552 -1.59937
O   -3.47637 5.4422 5.01017
O   3.47637 5.4422 -5.01017
O   -6.01487 1.4298 0.104596
O   6.01487 1.4298 -0.104596
O   -6.17926 1.30682 6.05337
O   6.17926 1.30682 -6.05337
O   2.63367 -1.29121 7.68033
O   -2.63367 -1.29121 -7.68033
O   -4.1893 3.54373 6.80448
O   4.1893 3.54373 -6.80448
O   0.56065 2.2397 4.55542
O   -0.56065 2.2397 -4.55542
O   5.584 -2.69162 -0.597961
O   -5.584 -2.69162 0.597961
O   3.87956 4.24851 1.88319
O   -3.87956 4.24851 -1.88319
O   -3.65634 1.61647 4.81196
O   3.65634 1.61647 -4.81196
O   -2.12839 -6.01711 3.68893
O   2.12839 -6.01711 -3.68893
O   -1.16283 -5.31669 6.16673
O   1.16283 -5.31669 -6.16673
O   3.52656 -2.14995 -2.87361
O   -3.52656 -2.14995 2.87361
O   -0.145354 -3.80332 4.50073
O   0.145354 -3.80332 -4.50073
O   1.60754 3.60609 0.266776
O   -1.60754 3.60609 -0.266776
O   4.12354 -4.33671 1.17378
O   -4.12354 -4.33671 -1.17378
O   -2.82055 -3.22719 5.27877
O   2.82055 -3.22719 -5.27877
O   0.12805 -1.18174 8.64781
O   -0.12805 -1.18174 -8.64781
O   0.539885 0.982772 1.33603
O   -0.539885 0.982772 -1.33603
O   -8.65027 1.63566 1.11824
O   8.65027 1.63566 -1.11824
O   -1.04343 6.04014 3.87946
O   1.04343 6.04014 -3.87946
O   0.783871 0.613806 6.70851
O   -0.783871 0.613806 -6.70851
O   1.52102 4.96551 3.3351
O   -1.52102 4.96551 -3.3351
O   -0.150545 -7.55055 4.77233
O   0.150545 -7.55055 -4.77233
O   1.33414 -1.04829 -0.539949
O   -1.33414 -1.04829 0.539949
O   -3.55251 1.53666 -1.04574
O   3.55251 1.53666 1.04574
O   -5.2535 -0.532344 4.25455
O   5.2535 -0.532344 -4.25455
O   3.61654 2.67059 4.28912
O   -3.61654 2.67059 -4.28912
O   -3.19605 7.58578 3.17355
O   3.19605 7.58578 -3.17355
O   5.3279 -1.72429 6.91668
O   -5.3279 -1.72429 -6.91668
