49

V   -1.01183 -1.10618 -3.23242
V   1.88785 -1.74978 -2.57553
V   1.4468 3.0865 -0.473481
V   3.29898 0.813999 -1.01813
V   -2.70565 0.350393 1.72603
V   -0.514472 2.23592 2.47478
V   -2.90155 -1.95013 -0.220026
V   0.395783 -3.45706 -0.831662
V   -1.06813 -2.8895 1.76394
V   -2.94495 0.615184 -1.75497
V   2.40749 -2.06906 0.999846
V   2.77817 0.694965 1.94663
V   -1.47165 3.09943 -0.129757
V   0.386399 1.58731 -2.84978
V   0.453261 -0.423811 3.42594
O   -1.65816 -1.68925 -4.58101
O   2.58814 -2.67672 -3.71646
O   2.06028 4.57636 -0.475693
O   4.74648 1.40002 -1.1276
O   -3.99245 0.544281 2.69044
O   -0.578988 3.31748 3.65795
O   -4.15667 -2.93829 -0.425435
O   0.39461 -4.98054 -1.29789
O   -1.71681 -4.21333 2.33613
O   -4.20359 0.649081 -2.76036
O   3.5852 -3.04722 1.51653
O   4.00748 1.22515 2.87974
O   -1.90449 4.6614 -0.110857
O   0.511911 2.36477 -4.23196
O   0.746513 -0.21308 4.98981
O   -1.42356 0.78916 -2.99161
O   0.0661673 -2.45273 -2.43844
O   -2.37369 -1.28095 -1.90628
O   3.26848 -0.433448 -2.23563
O   2.16585 -2.64104 -0.852535
O   2.18931 2.03279 -1.98586
O   2.6116 1.90472 0.452335
O   0.171738 3.09643 0.914809
O   -0.144974 2.93116 -1.55163
O   3.32713 -0.423911 0.484243
O   -3.58189 -0.0719468 -0.0548485
O   -2.51445 -1.58972 1.67406
O   -2.18601 2.27934 1.49405
O   -1.17722 0.543701 3.03832
O   1.09842 1.27895 2.70769
O   -1.34144 -3.06568 -0.161249
O   -0.344386 -2.02492 3.29749
O   -2.81944 2.322 -1.17827
O   2.14239 -1.01221 2.6986
