42

W   -1.29848 0.931111 3.91831
W   1.29848 -0.931111 -3.91831
W   -2.54506 1.41189 0.892156
W   2.54506 -1.41189 -0.892156
W   0.498475 2.4213 1.60068
W   -0.498475 -2.4213 -1.60068
W   1.29768 -0.593573 2.59334
W   -1.29768 0.593573 -2.59334
W   -1.75463 -1.5976 1.87064
W   1.75463 1.5976 -1.87064
O   -0.618511 0.437442 1.79698
O   0.618511 -0.437442 -1.79698
O   -1.84597 1.35378 5.48286
O   1.84597 -1.35378 -5.48286
O   -2.73149 1.633 2.79508
O   2.73149 -1.633 -2.79508
O   -0.322008 2.48649 3.42092
O   0.322008 -2.48649 -3.42092
O   0.323603 0.0202015 4.21044
O   -0.323603 -0.0202015 -4.21044
O   -2.11617 -0.779522 3.58613
O   2.11617 0.779522 -3.58613
O   -1.04892 -1.97635 0.122159
O   1.04892 1.97635 -0.122159
O   1.80851 -0.977364 0.823457
O   -1.80851 0.977364 -0.823457
O   -3.93902 2.22391 0.404532
O   3.93902 -2.22391 -0.404532
O   1.20434 3.96258 1.76919
O   -1.20434 -3.96258 -1.76919
O   2.60396 -1.29942 3.4368
O   -2.60396 1.29942 -3.4368
O   -2.58962 -3.04555 2.13863
O   2.58962 3.04555 -2.13863
O   -3.02242 -0.42063 1.09968
O   3.02242 0.42063 -1.09968
O   -1.25456 2.85293 0.936685
O   1.25456 -2.85293 -0.936685
O   1.79177 1.24852 2.36088
O   -1.79177 -1.24852 -2.36088
O   0.000797051 -2.02752 2.53347
O   -0.000797051 2.02752 -2.53347
