72

W   1.07513 5.32907e-15 5.10889
W   3.47022 -1.63999 3.52644
W   3.47022 1.63999 3.52644
W   3.59903 -1.64566 -0.153469
W   3.59903 1.64566 -0.153469
W   1.51451 -1.65755 -3.29322
W   1.51451 1.65755 -3.29322
W   -1.91068 -1.62774 -4.61837
W   -1.91068 1.62774 -4.61837
W   -4.31838 5.32907e-15 -3.07244
W   -3.53473 -1.83285 0.0299361
W   -3.53473 1.83285 0.0299361
W   -1.47796 -1.8545 3.16007
W   -1.47796 1.8545 3.16007
W   0.926864 -3.49821 1.58965
W   0.926864 3.49821 1.58965
W   -1.14864 -3.49821 -1.54442
W   -1.14864 3.49821 -1.54442
O   0.699155 5.32907e-15 6.66466
O   -0.0412619 -1.2704 4.5049
O   -0.0412619 1.2704 4.5049
O   2.42319 -1.32718 5.16288
O   2.42319 1.32718 5.16288
O   4.33638 5.32907e-15 3.94965
O   2.18359 -2.88679 3.02935
O   2.18359 2.88679 3.02935
O   4.56337 -2.81759 4.14639
O   4.56337 2.81759 4.14639
O   3.89682 -1.52412 1.69151
O   3.89682 1.52412 1.69151
O   2.20341 -2.81936 0.285917
O   2.20341 2.81936 0.285917
O   4.64624 5.32907e-15 -0.560065
O   4.69488 -2.64016 -0.450765
O   4.69488 2.64016 -0.450765
O   2.85015 -1.5738 -1.86729
O   2.85015 1.5738 -1.86729
O   2.09532 5.32907e-15 -4.04018
O   2.32231 -2.83888 -4.29594
O   2.32231 2.83888 -4.29594
O   0.578454 -2.83533 -2.23673
O   0.578454 2.83533 -2.23673
O   0.0416071 -1.46735 -4.29157
O   0.0416071 1.46735 -4.29157
O   -1.95986 -2.75194 -6.00321
O   -1.95986 2.75194 -6.00321
O   -1.83736 5.32907e-15 -5.33866
O   -1.84456 -2.83888 -3.10676
O   -1.84456 2.83888 -3.10676
O   -3.5686 -1.57203 -3.80409
O   -3.5686 1.57203 -3.80409
O   -5.98081 5.32907e-15 -3.32536
O   -4.08383 -1.2633 -1.65307
O   -4.08383 1.2633 -1.65307
O   -5.09447 -2.24981 0.622561
O   -5.09447 2.24981 0.622561
O   -3.51275 5.32907e-15 0.423635
O   -2.8444 -3.48827 -0.715271
O   -2.8444 3.48827 -0.715271
O   -2.50391 -2.17174 1.58003
O   -2.50391 2.17174 1.58003
O   -1.68423 5.32907e-15 2.93535
O   -2.54715 -2.4166 4.40215
O   -2.54715 2.4166 4.40215
O   -0.462813 -3.42795 2.93753
O   -0.462813 3.42795 2.93753
O   1.45939 -5.16144 1.82923
O   1.45939 5.16144 1.82923
O   -0.358326 -3.71361 0.137269
O   -0.358326 3.71361 0.137269
O   -1.10595 -5.13482 -1.97441
O   -1.10595 5.13482 -1.97441
