17

V   -2.5597 0.348356 -0.93296
V   -0.91918 0.173521 1.9439
V   2.4659 -0.0236322 1.28052
V   1.43675 -0.460718 -1.89148
O   -1.84268 1.1286 -2.25083
O   -1.29664 -1.2577 2.7051
O   -3.98406 1.1472 -0.779652
O   1.18833 1.23462 -2.36881
O   2.65867 -1.39813 2.13915
O   3.61039 1.19928 1.55871
O   -2.77747 -1.25491 -1.66692
O   -1.6725 1.0263 3.1697
O   -0.0690785 -1.06148 -1.78238
O   2.40864 -0.480247 -0.411485
O   0.761666 0.640366 1.36869
O   -2.01931 0.22653 0.717694
O   2.61027 -1.18795 -2.79894
