36

W   -2.82449 -0.411685 -0.411685
W   2.82449 0.411685 -0.411685
W   2.82449 -0.411685 0.411685
W   -2.82449 0.411685 0.411685
W   -0.411685 -2.82449 -0.411685
W   -0.411685 2.82449 0.411685
W   0.411685 2.82449 -0.411685
W   0.411685 -2.82449 0.411685
W   -0.411685 -0.411685 -2.82449
W   0.411685 -0.411685 2.82449
W   -0.411685 0.411685 2.82449
W   0.411685 0.411685 -2.82449
O   -1.43856 -1.43856 0.404668
O   1.43856 1.43856 0.404668
O   1.43856 -1.43856 -0.404668
O   -1.43856 1.43856 -0.404668
O   0.404668 -1.43856 -1.43856
O   0.404668 1.43856 1.43856
O   -0.404668 1.43856 -1.43856
O   -0.404668 -1.43856 1.43856
O   -1.43856 0.404668 -1.43856
O   1.43856 0.404668 1.43856
O   -1.43856 -0.404668 1.43856
O   1.43856 -0.404668 -1.43856
O   -3.16951 0.865474 0.865474
O   3.16951 -0.865474 0.865474
O   3.16951 0.865474 -0.865474
O   -3.16951 -0.865474 -0.865474
O   0.865474 -3.16951 0.865474
O   0.865474 3.16951 -0.865474
O   -0.865474 3.16951 0.865474
O   -0.865474 -3.16951 -0.865474
O   0.865474 0.865474 -3.16951
O   -0.865474 0.865474 3.16951
O   0.865474 -0.865474 3.16951
O   -0.865474 -0.865474 -3.16951
