19

W   -0.383845 -1.68991 1.84268
W   -0.383845 2.20387 1.8019
W   -0.542071 -1.18512 -1.38628
W   -0.542071 2.70866 -1.42706
O   -1.96447 -1.43177 -2.62184
O   0.784088 -1.40813 -2.58338
O   0.784088 2.48566 -2.62416
O   0.612813 -1.47179 0.0730339
O   0.612813 2.422 0.0322568
O   -1.92369 -1.44164 0.172947
O   -1.92369 2.45214 0.13217
O   0.857492 -1.33245 2.96302
O   0.857492 2.56133 2.92224
O   -0.34959 -3.43094 1.91092
O   -0.34959 0.462842 1.87014
O   -0.757388 -3.39839 -0.99059
O   -0.757388 0.495395 -1.03137
Na  2.68443 -1.44777 -0.507933
Na  2.68443 2.44602 -0.54871
