56

V   -1.07874 1.07874 -3.30434
V   1.07874 3.30434 1.07874
V   3.30434 -1.07874 -1.07874
V   -1.07874 3.30434 -1.07874
V   1.07874 -1.07874 -3.30434
V   3.30434 1.07874 1.07874
V   -1.07874 -1.07874 3.30434
V   1.07874 -3.30434 -1.07874
V   -1.07874 -3.30434 1.07874
V   1.07874 1.07874 3.30434
V   -3.30434 -1.07874 1.07874
V   -3.30434 1.07874 -1.07874
Ca  -1.01277 -1.01277 -1.01277
Ca  -1.01277 1.01277 1.01277
Ca  1.01277 -1.01277 1.01277
Ca  1.01277 1.01277 -1.01277
O   -0.933012 -0.933012 0.933012
O   -0.933012 0.933012 -0.933012
O   0.933012 -0.933012 -0.933012
O   0.933012 0.933012 0.933012
O   -0.875696 -0.875696 -2.93611
O   -0.875696 2.93611 0.875696
O   2.93611 -0.875696 0.875696
O   -0.875696 0.875696 2.93611
O   -0.875696 -2.93611 -0.875696
O   2.93611 0.875696 -0.875696
O   0.875696 -0.875696 2.93611
O   0.875696 2.93611 -0.875696
O   -2.93611 -0.875696 -0.875696
O   0.875696 0.875696 -2.93611
O   0.875696 -2.93611 0.875696
O   -2.93611 0.875696 0.875696
O   -0.969241 2.83837 -2.83837
O   2.83837 2.83837 0.969241
O   2.83837 -0.969241 -2.83837
O   -0.969241 -2.83837 2.83837
O   2.83837 -2.83837 -0.969241
O   2.83837 0.969241 2.83837
O   0.969241 2.83837 2.83837
O   -2.83837 2.83837 -0.969241
O   -2.83837 -0.969241 2.83837
O   0.969241 -2.83837 -2.83837
O   -2.83837 -2.83837 0.969241
O   -2.83837 0.969241 -2.83837
O   -1.11469 1.11469 -4.88405
O   1.11469 4.88405 1.11469
O   4.88405 -1.11469 -1.11469
O   -1.11469 4.88405 -1.11469
O   1.11469 -1.11469 -4.88405
O   4.88405 1.11469 1.11469
O   -1.11469 -1.11469 4.88405
O   1.11469 -4.88405 -1.11469
O   -1.11469 -4.88405 1.11469
O   1.11469 1.11469 4.88405
O   -4.88405 -1.11469 1.11469
O   -4.88405 1.11469 -1.11469
