82

As  -0.221758 -1.90933 0.00852473
W   -1.82398 -4.76176 -1.4175
W   -1.12141 -4.81082 1.88153
W   1.36049 -5.11264 -0.373437
W   2.29554 -2.16047 -2.44964
W   -0.882507 -1.79621 -3.49162
W   -3.58333 -1.52412 -0.982867
W   -2.88742 -1.55762 2.33572
W   0.624856 -1.93005 3.46338
W   3.08923 -2.19623 1.17924
As  0.212121 1.91724 -0.0016166
W   -0.793722 5.04515 -1.44883
W   -0.0287669 4.97495 1.83621
W   2.40885 4.70147 -0.471078
W   2.70664 1.57832 -2.4818
W   -0.497693 1.9327 -3.49059
W   -3.17036 2.21981 -0.94298
W   -2.42854 2.15983 2.35335
W   1.10149 1.8108 3.43276
W   3.53012 1.54635 1.14556
O   -0.356454 -3.63782 0.0190492
O   0.315276 -1.48274 -1.53113
O   -1.72562 -1.24805 0.316032
O   0.879529 -1.48608 1.18262
O   0.364341 3.65541 0.00278946
O   0.652893 1.40233 -1.53694
O   -1.43239 1.61862 0.360251
O   1.28841 1.3206 1.18711
O   -2.83193 -5.87964 -2.34213
O   -1.58893 -5.90308 3.09837
O   2.48467 -6.37 -0.625189
O   3.64355 -2.67595 -3.33
O   -1.49781 -2.16238 -5.03026
O   -5.11815 -1.73228 -1.69827
O   -3.9324 -1.85328 3.58537
O   0.643547 -2.39826 5.12902
O   4.75337 -2.72809 1.32822
O   -1.53169 6.26893 -2.39495
O   -0.233791 6.18086 3.02233
O   3.73 5.70196 -0.787358
O   4.14239 1.68988 -3.39138
O   -1.04337 2.40577 -5.00665
O   -4.57842 2.77429 -1.73584
O   -3.34361 2.68857 3.69551
O   1.15523 2.18799 5.05532
O   5.21365 1.77693 1.38238
O   -2.07258 -5.50293 0.356693
O   -0.119304 -5.69258 -1.46246
O   0.413407 -5.77052 1.18797
O   -0.875147 5.79748 0.327717
O   1.08046 5.60671 -1.51742
O   1.65757 5.52068 1.05997
O   0.955464 -2.29801 -3.79614
O   -4.18123 -1.7087 0.901087
O   2.46598 -2.39408 2.99726
O   1.36785 1.96517 -3.85778
O   -3.60997 2.61203 0.866625
O   2.9578 1.91479 2.9279
O   -1.12632 -3.5916 -2.73658
O   -3.05973 -3.42327 -0.948156
O   -2.37165 -3.43167 2.008
O   0.0863034 -3.68431 2.82692
O   2.35033 -3.96884 0.732172
O   1.77322 -3.88722 -1.82622
O   -0.35295 3.65872 -2.77827
O   -2.25833 3.88862 -1.02479
O   -1.53987 3.87739 2.02366
O   0.899389 3.59106 2.81817
O   3.12603 3.28772 0.654436
O   2.56178 3.34697 -1.84328
O   -2.37281 -1.30197 -2.44214
O   -1.14734 -1.45382 3.15091
O   2.96949 -1.78261 -0.683899
O   -2.00249 1.77191 -2.39175
O   -0.731455 1.6526 3.1126
O   3.34682 1.13929 -0.730282
O   2.46014 -0.287147 -2.79974
O   -0.502483 0.0343749 -3.72825
O   -3.65319 0.347691 -0.769245
O   -2.96861 0.355688 2.28722
O   1.14822 -0.0613775 3.613
O   3.38304 -0.370126 1.4455
