31

Rb  -0.584166 4.43296 1.61194
Rb  4.13114 -1.71058 1.61194
Rb  -3.54697 -2.72238 1.61194
Rb  0.584166 -4.43296 -1.61194
Rb  -4.13114 1.71058 -1.61194
Rb  3.54697 2.72238 -1.61194
Nb  1.52646 1.18636 1.36215
Nb  0.264187 -1.91513 1.36215
Nb  -1.79065 0.728775 1.36215
Nb  -1.52646 -1.18636 -1.36215
Nb  -0.264187 1.91513 -1.36215
Nb  1.79065 -0.728775 -1.36215
O   0 8.88178e-16 0
O   2.69394 2.11613 2.36296
O   0.485654 -3.39109 2.36296
O   -3.1796 1.27496 2.36296
O   -2.69394 -2.11613 -2.36296
O   -0.485654 3.39109 -2.36296
O   3.1796 -1.27496 -2.36296
O   1.47503 -0.60496 2.24567
O   -1.26142 -0.974931 2.24567
O   -0.213603 1.57989 2.24567
O   -1.47503 0.60496 -2.24567
O   1.26142 0.974931 -2.24567
O   0.213603 -1.57989 -2.24567
O   -2.72689 -0.361994 -0.0020686
O   1.04995 2.54255 -0.0020686
O   1.67694 -2.18056 -0.0020686
O   2.72689 0.361994 0.0020686
O   -1.04995 -2.54255 0.0020686
O   -1.67694 2.18056 0.0020686
