81

O   -1.58402 2.74361 5.95381
O   3.16805 8.89267e-16 5.95381
O   -1.58402 -2.74361 5.95381
O   -0.233477 5.18832 1.99043
O   4.60996 -2.39196 1.99043
O   -4.37648 -2.79636 1.99043
O   -0.233477 -5.18832 1.99043
O   -4.37648 2.79636 1.99043
O   4.60996 2.39196 1.99043
O   -0.151385 5.22043 -2.39952
O   4.59672 -2.47911 -2.39952
O   -4.44533 -2.74132 -2.39952
O   -0.151385 -5.22043 -2.39952
O   -4.44533 2.74132 -2.39952
O   4.59672 2.47911 -2.39952
O   -1.59064 2.75508 -6.36515
O   3.18129 1.93237e-15 -6.36515
O   -1.59064 -2.75508 -6.36515
O   0.768841 1.33014 5.46455
O   0.767517 -1.33091 5.46455
O   -1.53636 0.00076445 5.46455
O   0.768841 -1.33014 5.46455
O   -1.53636 -0.00076445 5.46455
O   0.767517 1.33091 5.46455
O   -0.168598 2.88962 3.47838
O   2.58678 -1.2988 3.47838
O   -2.41819 -1.59082 3.47838
O   -0.168598 -2.88962 3.47838
O   -2.41819 1.59082 3.47838
O   2.58678 1.2988 3.47838
O   1.99493 3.45379 1.91542
O   1.9936 -3.45455 1.91542
O   -3.98853 0.00076445 1.91542
O   1.99493 -3.45379 1.91542
O   -3.98853 -0.00076445 1.91542
O   1.9936 3.45455 1.91542
O   -1.66214 2.87892 1.32427
O   3.32429 5.73826e-16 1.32427
O   -1.66214 -2.87892 1.32427
O   0.363677 3.64031 -0.216862
O   2.97076 -2.13511 -0.216862
O   -3.33444 -1.5052 -0.216862
O   0.363677 -3.64031 -0.216862
O   -3.33444 1.5052 -0.216862
O   2.97076 2.13511 -0.216862
O   1.9936 3.45149 -2.36705
O   1.99228 -3.45226 -2.36705
O   -3.98588 0.00076445 -2.36705
O   1.9936 -3.45149 -2.36705
O   -3.98588 -0.00076445 -2.36705
O   1.99228 3.45226 -2.36705
O   -1.67936 2.90873 -1.77591
O   3.35871 1.92994e-15 -1.77591
O   -1.67936 -2.90873 -1.77591
O   -0.181838 2.91255 -3.90818
O   2.61327 -1.2988 -3.90818
O   -2.43143 -1.61375 -3.90818
O   -0.181838 -2.91255 -3.90818
O   -2.43143 1.61375 -3.90818
O   2.61327 1.2988 -3.90818
O   -1.54033 3.80457e-16 -5.87476
O   0.770165 1.33397 -5.87476
O   0.770165 -1.33397 -5.87476
W   -0.982038 1.70094 4.73233
W   1.96408 8.83114e-16 4.73233
W   -0.982038 -1.70094 4.73233
W   0.0934085 3.53801 1.69648
W   3.0173 -1.8499 1.69648
W   -3.11071 -1.68811 1.69648
W   0.0934085 -3.53801 1.69648
W   -3.11071 1.68811 1.69648
W   3.0173 1.8499 1.69648
W   0.0921771 3.54803 -2.0787
W   3.0266 -1.85384 -2.0787
W   -3.11878 -1.69419 -2.0787
W   0.0921771 -3.54803 -2.0787
W   -3.11878 1.69419 -2.0787
W   3.0266 1.85384 -2.0787
W   -0.989254 1.71344 -5.14445
W   1.97851 1.19669e-15 -5.14445
W   -0.989254 -1.71344 -5.14445
