48

W   -2.93812 -0.522198 -0.522198
W   2.93812 0.522198 -0.522198
W   2.93812 -0.522198 0.522198
W   -2.93812 0.522198 0.522198
W   -0.522198 -2.93812 -0.522198
W   -0.522198 2.93812 0.522198
W   0.522198 2.93812 -0.522198
W   0.522198 -2.93812 0.522198
W   -0.522198 -0.522198 -2.93812
W   0.522198 -0.522198 2.93812
W   -0.522198 0.522198 2.93812
W   0.522198 0.522198 -2.93812
O   1.89348 1.89348 -0.0972888
O   -1.89348 -1.89348 -0.0972888
O   1.89348 -1.89348 0.0972888
O   -1.89348 1.89348 0.0972888
O   1.89348 0.0972888 -1.89348
O   -1.89348 0.0972888 1.89348
O   -1.89348 -0.0972888 -1.89348
O   1.89348 -0.0972888 1.89348
O   0.0972888 1.89348 -1.89348
O   0.0972888 -1.89348 1.89348
O   -0.0972888 1.89348 1.89348
O   -0.0972888 -1.89348 -1.89348
O   -1.56149 -1.56149 0.243222
O   1.56149 1.56149 0.243222
O   1.56149 -1.56149 -0.243222
O   -1.56149 1.56149 -0.243222
O   0.243222 -1.56149 -1.56149
O   0.243222 1.56149 1.56149
O   -0.243222 1.56149 -1.56149
O   -0.243222 -1.56149 1.56149
O   -1.56149 0.243222 -1.56149
O   1.56149 0.243222 1.56149
O   -1.56149 -0.243222 1.56149
O   1.56149 -0.243222 -1.56149
O   -3.19837 0.632377 0.632377
O   3.19837 -0.632377 0.632377
O   3.19837 0.632377 -0.632377
O   -3.19837 -0.632377 -0.632377
O   0.632377 -3.19837 0.632377
O   0.632377 3.19837 -0.632377
O   -0.632377 3.19837 0.632377
O   -0.632377 -3.19837 -0.632377
O   0.632377 0.632377 -3.19837
O   -0.632377 0.632377 3.19837
O   0.632377 -0.632377 3.19837
O   -0.632377 -0.632377 -3.19837
