82

As  0.890553 1.53226 0.78814
As  -0.890553 -1.53226 -0.78814
W   -1.25458 1.30872 3.61069
W   1.25458 -1.30872 -3.61069
W   1.76395 -0.430623 3.60688
W   -1.76395 0.430623 -3.60688
W   3.94875 -0.254588 0.709492
W   -3.94875 0.254588 -0.709492
W   3.0488 1.63769 -2.07176
W   -3.0488 -1.63769 2.07176
W   -0.108409 3.45937 -2.06285
W   0.108409 -3.45937 2.06285
W   -2.19158 3.29469 0.711196
W   2.19158 -3.29469 -0.711196
W   3.92383 3.41224 1.05463
W   -3.92383 -3.41224 -1.05463
W   0.991204 5.10577 1.06144
W   -0.991204 -5.10577 -1.06144
W   1.8764 3.2504 3.76444
W   -1.8764 -3.2504 -3.76444
O   1.59773 2.8052 1.3995
O   -1.59773 -2.8052 -1.3995
O   1.98131 0.671962 -0.242935
O   -1.98131 -0.671962 0.242935
O   0.33878 0.556498 1.98674
O   -0.33878 -0.556498 -1.98674
O   -0.402164 2.04049 -0.0843281
O   0.402164 -2.04049 0.0843281
O   -2.1365 1.48589 5.10513
O   2.1365 -1.48589 -5.10513
O   2.48293 -1.06378 4.99633
O   -2.48293 1.06378 -4.99633
O   5.46965 -0.834747 0.956447
O   -5.46965 0.834747 -0.956447
O   4.1353 2.08213 -3.3574
O   -4.1353 -2.08214 3.3574
O   -0.313644 4.53338 -3.29186
O   0.313644 -4.53338 3.29186
O   -3.57904 4.24945 1.09146
O   3.57904 -4.24945 -1.09146
O   5.43031 4.06395 0.922366
O   -5.43031 -4.06395 -0.922366
O   0.738758 6.76505 1.02199
O   -0.738758 -6.76505 -1.02199
O   2.14196 3.82734 5.28995
O   -2.14196 -3.82734 -5.28995
O   2.86323 5.02362 0.845029
O   -2.86323 -5.02362 -0.845029
O   4.01071 3.52449 2.62772
O   -4.01071 -3.52449 -2.62772
O   1.31578 4.85327 2.96721
O   -1.31578 -4.85327 -2.96721
O   -0.0120212 0.225249 4.19806
O   0.0120212 -0.225249 -4.19806
O   4.16808 0.363427 -0.793471
O   -4.16808 -0.363427 0.793471
O   -1.63488 3.93713 -1.11855
O   1.63488 -3.93713 1.11855
O   0.0732201 2.65945 3.8756
O   -0.0732201 -2.65945 -3.8756
O   2.26654 1.41585 3.91886
O   -2.26654 -1.41585 -3.91886
O   4.31889 1.52564 1.39819
O   -4.31889 -1.52564 -1.39819
O   3.51238 2.91877 -0.634864
O   -3.51238 -2.91877 0.634864
O   0.683023 4.49173 -0.744971
O   -0.683023 -4.49173 0.744971
O   -0.779193 4.50688 1.33003
O   0.779193 -4.50688 -1.33003
O   -2.0447 2.31496 2.16763
O   2.0447 -2.31496 -2.16763
O   3.07306 -0.632212 2.24365
O   -3.07306 0.632212 -2.24365
O   1.58789 2.74274 -2.53815
O   -1.58789 -2.74274 2.53815
O   -2.27747 -0.140071 3.03275
O   2.27747 0.140071 -3.03275
O   0.896127 -2.07078 3.00392
O   -0.896127 2.07078 -3.00392
O   3.15502 -1.89096 0.0651031
O   -3.15502 1.89096 -0.0651031
