48

W   -2.94407 -0.533072 -0.533072
W   2.94407 0.533072 -0.533072
W   2.94407 -0.533072 0.533072
W   -2.94407 0.533072 0.533072
W   -0.533072 -2.94407 -0.533072
W   -0.533072 2.94407 0.533072
W   0.533072 2.94407 -0.533072
W   0.533072 -2.94407 0.533072
W   -0.533072 -0.533072 -2.94407
W   0.533072 -0.533072 2.94407
W   -0.533072 0.533072 2.94407
W   0.533072 0.533072 -2.94407
O   1.9473 1.9473 0.0121706
O   -1.9473 -1.9473 0.0121706
O   1.9473 -1.9473 -0.0121706
O   -1.9473 1.9473 -0.0121706
O   1.9473 -0.0121706 -1.9473
O   -1.9473 -0.0121706 1.9473
O   -1.9473 0.0121706 -1.9473
O   1.9473 0.0121706 1.9473
O   -0.0121706 1.9473 -1.9473
O   -0.0121706 -1.9473 1.9473
O   0.0121706 1.9473 1.9473
O   0.0121706 -1.9473 -1.9473
O   -1.59435 -1.59435 0.474653
O   1.59435 1.59435 0.474653
O   1.59435 -1.59435 -0.474653
O   -1.59435 1.59435 -0.474653
O   0.474653 -1.59435 -1.59435
O   0.474653 1.59435 1.59435
O   -0.474653 1.59435 -1.59435
O   -0.474653 -1.59435 1.59435
O   -1.59435 0.474653 -1.59435
O   1.59435 0.474653 1.59435
O   -1.59435 -0.474653 1.59435
O   1.59435 -0.474653 -1.59435
O   -3.35909 0.754577 0.754577
O   3.35909 -0.754577 0.754577
O   3.35909 0.754577 -0.754577
O   -3.35909 -0.754577 -0.754577
O   0.754577 -3.35909 0.754577
O   0.754577 3.35909 -0.754577
O   -0.754577 3.35909 0.754577
O   -0.754577 -3.35909 -0.754577
O   0.754577 0.754577 -3.35909
O   -0.754577 0.754577 3.35909
O   0.754577 -0.754577 3.35909
O   -0.754577 -0.754577 -3.35909
