27

Ta  1.85142 -0.512283 -1.37154
Ta  -1.36936 -1.34724 -1.37154
Ta  -0.482062 1.85952 -1.37154
Ta  0.513584 -1.85938 1.36539
Ta  -1.86706 0.484913 1.36539
Ta  1.35348 1.37447 1.36539
O   0.000713732 -4.79051e-20 0.028717
O   -0.000356866 -0.00061811 0.028717
O   -0.000356866 0.00061811 0.028717
O   0.902157 -3.3106 2.38475
O   -3.31814 0.874008 2.38475
O   2.41598 2.43659 2.38475
O   3.2457 -0.89935 -2.45586
O   -2.40171 -2.36118 -2.45586
O   -0.843988 3.26053 -2.45586
O   0.392553 -1.53539 -2.22516
O   -1.52596 0.427732 -2.22516
O   1.13341 1.10765 -2.22516
O   1.54987 -0.40239 2.2342
O   -1.12341 -1.14103 2.2342
O   -0.426455 1.54342 2.2342
O   1.96205 -1.9421 0.014259
O   -2.66293 -0.728134 0.014259
O   0.700885 2.67024 0.014259
O   2.64295 0.679921 0.0252596
O   -0.732646 -2.62882 0.0252596
O   -1.9103 1.9489 0.0252596
