16

Ba  1.89801 -0.298023 -0.737278
Ba  -1.89801 0.298023 0.737278
K   1.89801 -0.298023 -0.737278
K   -1.89801 0.298023 0.737278
Ba  -1.34923 3.90971 -2.23965
Ba  1.34923 -3.90971 2.23965
V   2.07164 -3.76252 -1.12569
V   -2.07164 3.76252 1.12569
O   1.38433 -2.647 -2.24652
O   -1.38433 2.647 2.24652
O   3.25694 -4.83781 -1.86313
O   -3.25694 4.8378 1.86313
O   2.68608 -2.83352 0.14687
O   -2.68608 2.83352 -0.14687
O   0.886756 -4.7407 -0.510929
O   -0.886756 4.7407 0.510929
