43

W   3.58487 0.955976 -0.0375847
W   -2.62034 -2.6266 -0.0375847
W   0.442129 2.65532 -1.04361
W   -2.52064 0.944767 -1.04361
W   -1.00003 1.73181 1.91613
W   -0.999772 1.73196 1.91613
W   -1.02286 -1.63917 -3.25728
W   1.93099 0.0662384 -3.25728
W   2.13956 0.0173134 2.91467
W   -1.08478 -1.84426 2.91467
O   4.90163 2.04338 -0.237132
O   -4.22044 -3.22325 -0.237132
O   0.743312 4.2594 -1.67795
O   -4.0604 1.48597 -1.67795
O   -1.58377 2.74015 3.21829
O   -1.58115 2.74166 3.21829
O   -2.05076 -1.90697 -4.55801
O   2.67687 0.822531 -4.55801
O   2.57192 0.510501 4.51407
O   -1.72807 -1.9721 4.51407
O   4.4189 -0.637645 0.19639
O   -1.65723 -4.1457 0.19639
O   3.21207 0.449913 -1.78315
O   -1.99567 -2.55678 -1.78315
O   2.09444 2.18879 -0.307261
O   -2.94277 -0.719439 -0.307261
O   3.25929 1.12244 1.84282
O   -2.60171 -2.26141 1.84282
O   -1.37651 2.38419 -1.62695
O   0.937454 1.5511 -2.4669
O   -1.81202 -0.0363071 -2.4669
O   -0.235271 3.01279 0.728729
O   -2.49152 1.71015 0.728729
O   0.717076 1.33905 2.43731
O   -1.51819 0.0485164 2.43731
O   0.292062 -0.502836 -4.06551
O   0.289438 -0.504351 -4.06551
O   0.168755 -3.00967 -3.41364
O   2.52208 -1.65098 -3.41364
O   3.2934 -1.4056 2.57917
O   -0.429413 -3.55497 2.57917
O   0.669852 -1.15719 3.31392
O   0.667229 -1.1587 3.31392
