44

W   -0.12424 -3.51286 -1.03306
W   3.10434 1.64883 -1.03306
W   -2.9801 1.86402 -1.03306
W   3.10434 -1.64883 -1.03306
W   -2.9801 -1.86402 -1.03306
W   -0.12424 3.51286 -1.03306
W   0.988935 -1.71289 2.10424
W   0.988935 1.71289 2.10424
W   -1.97787 -3.39294e-15 2.10424
Si  -1.77636e-15 -5.32907e-15 -0.63457
O   -0.76871 -1.33145 -1.15272
O   1.53742 -3.65008e-15 -1.15272
O   -0.76871 1.33144 -1.15272
O   1.63714 -2.83562 -1.18974
O   1.63714 2.83562 -1.18974
O   -3.27429 -5.04328e-15 -1.18974
O   -1.77636e-15 -5.32907e-15 0.882881
O   0.166208 -2.8788 1.09261
O   2.41001 1.58334 1.09261
O   -2.57622 1.29546 1.09261
O   2.41001 -1.58334 1.09261
O   -2.57622 -1.29546 1.09261
O   0.166208 2.8788 1.09261
O   -0.806107 -1.39622 3.07887
O   1.61221 -3.73188e-15 3.07887
O   -0.806107 1.39622 3.07887
O   -2.0402 -3.53373 -0.424841
O   4.0804 -7.44238e-15 -0.424841
O   -2.0402 3.53373 -0.424841
O   1.57482 -2.72766 3.39963
O   1.57482 2.72766 3.39963
O   -3.14963 -3.42554e-15 3.39963
O   0.166208 -5.15305 -0.437178
O   4.37957 2.72047 -0.437178
O   -4.54578 2.43259 -0.437178
O   4.37957 -2.72047 -0.437178
O   -4.54578 -2.43259 -0.437178
O   0.166208 5.15305 -0.437178
O   -0.43214 -3.67047 -2.57148
O   3.39479 1.46099 -2.57148
O   -2.96265 2.20948 -2.57148
O   3.39479 -1.46099 -2.57148
O   -2.96265 -2.20948 -2.57148
O   -0.43214 3.67047 -2.57148
