60

W   -3.02383 -0.540259 -0.540259
W   3.02383 0.540259 -0.540259
W   3.02383 -0.540259 0.540259
W   -3.02383 0.540259 0.540259
W   -0.540259 -3.02383 -0.540259
W   -0.540259 3.02383 0.540259
W   0.540259 3.02383 -0.540259
W   0.540259 -3.02383 0.540259
W   -0.540259 -0.540259 -3.02383
W   0.540259 -0.540259 3.02383
W   -0.540259 0.540259 3.02383
W   0.540259 0.540259 -3.02383
O   -4.29994 -1.95306 -0.0842904
O   4.29994 1.95306 -0.0842904
O   4.29994 -1.95306 0.0842904
O   -4.29994 1.95306 0.0842904
O   -0.0842904 -4.29994 -1.95306
O   -0.0842904 4.29994 1.95306
O   0.0842904 4.29994 -1.95306
O   0.0842904 -4.29994 1.95306
O   -1.95306 -0.0842904 -4.29994
O   1.95306 -0.0842904 4.29994
O   -1.95306 0.0842904 4.29994
O   1.95306 0.0842904 -4.29994
O   1.95306 4.29994 -0.0842904
O   -1.95306 -4.29994 -0.0842904
O   1.95306 -4.29994 0.0842904
O   -1.95306 4.29994 0.0842904
O   4.29994 0.0842904 -1.95306
O   -4.29994 0.0842904 1.95306
O   -4.29994 -0.0842904 -1.95306
O   4.29994 -0.0842904 1.95306
O   0.0842904 1.95306 -4.29994
O   0.0842904 -1.95306 4.29994
O   -0.0842904 1.95306 4.29994
O   -0.0842904 -1.95306 -4.29994
O   -1.59789 -1.59789 0.299894
O   1.59789 1.59789 0.299894
O   1.59789 -1.59789 -0.299894
O   -1.59789 1.59789 -0.299894
O   0.299894 -1.59789 -1.59789
O   0.299894 1.59789 1.59789
O   -0.299894 1.59789 -1.59789
O   -0.299894 -1.59789 1.59789
O   -1.59789 0.299894 -1.59789
O   1.59789 0.299894 1.59789
O   -1.59789 -0.299894 1.59789
O   1.59789 -0.299894 -1.59789
O   -3.33773 0.681827 0.681827
O   3.33773 -0.681827 0.681827
O   3.33773 0.681827 -0.681827
O   -3.33773 -0.681827 -0.681827
O   0.681827 -3.33773 0.681827
O   0.681827 3.33773 -0.681827
O   -0.681827 3.33773 0.681827
O   -0.681827 -3.33773 -0.681827
O   0.681827 0.681827 -3.33773
O   -0.681827 0.681827 3.33773
O   0.681827 -0.681827 3.33773
O   -0.681827 -0.681827 -3.33773
