57

W   -0.0998844 3.5047 -0.120631
W   -2.98522 -1.83885 -0.120631
W   3.0851 -1.66585 -0.120631
W   -2.99809 1.84493 -0.119243
W   -0.0987138 -3.51889 -0.119243
W   3.09681 1.67396 -0.119243
W   -1.07142 1.8544 -2.93567
W   2.14166 0.0006758 -2.93567
W   -1.07025 -1.85507 -2.93567
Mg  0.931344 1.58881 2.75822
Mg  -1.84162 0.0121644 2.75822
Mg  0.910274 -1.60097 2.75822
Si  0.000780347 1.63055e-15 -0.113694
Si  -0.000390173 -0.0006758 -0.113694
Si  -0.000390173 0.0006758 -0.113694
O   -4.62746 -2.39233 -0.0790088
O   0.241907 5.20366 -0.0790088
O   4.38555 -2.81133 -0.0790088
O   -4.70939 2.45315 -0.00963878
O   0.230202 -5.30503 -0.00963878
O   4.47919 2.85188 -0.00963878
O   -2.0289 3.60877 0.184597
O   -2.11084 -3.56147 0.184597
O   4.13974 -0.047306 0.184597
O   -3.30477 -0.03379 -0.384237
O   1.68165 -2.84512 -0.384237
O   1.62312 2.87891 -0.384237
O   -0.448699 3.39927 -2.14623
O   3.16821 -1.31105 -2.14623
O   -2.71951 -2.08822 -2.14623
O   -2.75462 1.50028 1.72461
O   0.0780347 -3.13571 1.72461
O   2.67659 1.63544 1.72461
O   0.0429191 3.12895 1.71074
O   -2.73121 -1.52731 1.71074
O   2.68829 -1.60165 1.71074
O   1.56459 0.006758 3.79184
O   -0.776445 -1.35836 3.79184
O   -0.78815 1.3516 3.79184
O   -1.37341 -0.013516 -2.95093
O   0.675 1.19617 -2.95093
O   0.69841 -1.18265 -2.95093
O   -1.39682 2.37882 -4.42157
O   2.75853 0.020274 -4.42157
O   -1.3617 -2.39909 -4.42157
O   -2.71951 2.11525 -2.07686
O   3.19162 1.29754 -2.07686
O   -0.47211 -3.41279 -2.07686
O   1.90405 3.06813 3.79184
O   -3.6091 0.114886 3.79184
O   1.70506 -3.18302 3.79184
O   -0.823266 1.39891 -0.481355
O   1.62312 0.013516 -0.481355
O   -0.799855 -1.41242 -0.481355
O   0.000780347 1.63055e-15 1.87723
O   -0.000390173 -0.0006758 1.87723
O   -0.000390173 0.0006758 1.87723
